(RGRKLLRR)2KK.sdf
  ChemDraw04101916142D

  0  0  0     0  0              0 V3000
M  V30 BEGIN CTAB
M  V30 COUNTS 179 182 21 0 1
M  V30 BEGIN ATOM
M  V30 1 H -2.232908 2.386413 0.000000 0
M  V30 2 O 2.233548 2.386413 0.000000 0
M  V30 3 C -1.664437 1.148913 0.000000 0
M  V30 4 C -1.664437 1.973913 0.000000 0
M  V30 5 C -0.949987 2.386413 0.000000 0
M  V30 6 N -2.378887 2.386413 0.000000 0
M  V30 7 O -0.949987 3.211413 0.000000 0
M  V30 8 N -1.664437 -0.501087 0.000000 0
M  V30 9 C -1.664437 -1.326087 0.000000 0
M  V30 10 N -2.378887 -1.738587 0.000000 0
M  V30 11 N -0.949987 -1.738587 0.000000 0
M  V30 12 C -2.378887 0.736413 0.000000 0
M  V30 13 C -2.378887 -0.088587 0.000000 0
M  V30 14 C -1.294562 1.973913 0.000000 0
M  V30 15 C -0.580112 2.386413 0.000000 0
M  V30 16 N -2.009012 2.386413 0.000000 0
M  V30 17 O -0.580112 3.211413 0.000000 0
M  V30 18 C -0.924687 1.148913 0.000000 0
M  V30 19 C -0.924687 1.973913 0.000000 0
M  V30 20 C -0.210237 2.386413 0.000000 0
M  V30 21 N -1.639137 2.386413 0.000000 0
M  V30 22 O -0.210237 3.211413 0.000000 0
M  V30 23 N -0.924687 -0.501087 0.000000 0
M  V30 24 C -0.924687 -1.326087 0.000000 0
M  V30 25 N -1.639137 -1.738587 0.000000 0
M  V30 26 N -0.210237 -1.738587 0.000000 0
M  V30 27 C -1.639137 0.736413 0.000000 0
M  V30 28 C -1.639137 -0.088587 0.000000 0
M  V30 29 C -0.554812 1.148913 0.000000 0
M  V30 30 C -0.554812 1.973913 0.000000 0
M  V30 31 C 0.159638 2.386413 0.000000 0
M  V30 32 N -1.269262 2.386413 0.000000 0
M  V30 33 O 0.159638 3.211413 0.000000 0
M  V30 34 C -1.269262 0.736413 0.000000 0
M  V30 35 C -1.269262 -0.088587 0.000000 0
M  V30 36 C -1.983712 -0.501087 0.000000 0
M  V30 37 N -1.983712 -1.326087 0.000000 0
M  V30 38 C 0.554813 1.148913 0.000000 0
M  V30 39 C 0.554813 1.973913 0.000000 0
M  V30 40 C 1.269263 2.386413 0.000000 0
M  V30 41 N -0.159637 2.386413 0.000000 0
M  V30 42 O 1.269263 3.211413 0.000000 0
M  V30 43 N 0.554813 -0.501087 0.000000 0
M  V30 44 C 0.554813 -1.326087 0.000000 0
M  V30 45 N -0.159637 -1.738587 0.000000 0
M  V30 46 N 1.269263 -1.738587 0.000000 0
M  V30 47 C -0.159637 0.736413 0.000000 0
M  V30 48 C -0.159637 -0.088587 0.000000 0
M  V30 49 C 0.924688 1.148913 0.000000 0
M  V30 50 C 0.924688 1.973913 0.000000 0
M  V30 51 C 1.639138 2.386413 0.000000 0
M  V30 52 N 0.210238 2.386413 0.000000 0
M  V30 53 O 1.639138 3.211413 0.000000 0
M  V30 54 N 0.924688 -0.501087 0.000000 0
M  V30 55 C 0.924688 -1.326087 0.000000 0
M  V30 56 N 0.210238 -1.738587 0.000000 0
M  V30 57 N 1.639138 -1.738587 0.000000 0
M  V30 58 C 0.210238 0.736413 0.000000 0
M  V30 59 C 0.210238 -0.088587 0.000000 0
M  V30 60 C 1.294563 1.148914 0.000000 0
M  V30 61 C 1.294563 1.973914 0.000000 0
M  V30 62 C 2.009013 2.386414 0.000000 0
M  V30 63 N 0.580113 2.386414 0.000000 0
M  V30 64 O 2.009013 3.211414 0.000000 0
M  V30 65 C 0.580113 0.736414 0.000000 0
M  V30 66 C 0.580113 -0.088586 0.000000 0
M  V30 67 C -0.134337 -0.501086 0.000000 0
M  V30 68 N -0.134337 -1.326086 0.000000 0
M  V30 69 H -2.232908 0.913586 0.000000 0
M  V30 70 C -1.664437 -0.323914 0.000000 0
M  V30 71 C -1.664437 0.501086 0.000000 0
M  V30 72 C -0.949987 0.913586 0.000000 0
M  V30 73 N -2.378887 0.913586 0.000000 0
M  V30 74 O -0.949987 1.738586 0.000000 0
M  V30 75 N -1.664437 -1.973914 0.000000 0
M  V30 76 C -1.664437 -2.798914 0.000000 0
M  V30 77 N -2.378887 -3.211414 0.000000 0
M  V30 78 N -0.949987 -3.211414 0.000000 0
M  V30 79 C -2.378887 -0.736414 0.000000 0
M  V30 80 C -2.378887 -1.561414 0.000000 0
M  V30 81 C -1.294562 0.501086 0.000000 0
M  V30 82 C -0.580112 0.913586 0.000000 0
M  V30 83 N -2.009012 0.913586 0.000000 0
M  V30 84 O -0.580112 1.738586 0.000000 0
M  V30 85 C -0.924687 -0.323914 0.000000 0
M  V30 86 C -0.924687 0.501086 0.000000 0
M  V30 87 C -0.210237 0.913586 0.000000 0
M  V30 88 N -1.639137 0.913586 0.000000 0
M  V30 89 O -0.210237 1.738586 0.000000 0
M  V30 90 N -0.924687 -1.973914 0.000000 0
M  V30 91 C -0.924687 -2.798914 0.000000 0
M  V30 92 N -1.639137 -3.211414 0.000000 0
M  V30 93 N -0.210237 -3.211414 0.000000 0
M  V30 94 C -1.639137 -0.736414 0.000000 0
M  V30 95 C -1.639137 -1.561414 0.000000 0
M  V30 96 C -0.554812 -0.323914 0.000000 0
M  V30 97 C -0.554812 0.501086 0.000000 0
M  V30 98 C 0.159638 0.913586 0.000000 0
M  V30 99 N -1.269262 0.913586 0.000000 0
M  V30 100 O 0.159638 1.738586 0.000000 0
M  V30 101 C -1.269262 -0.736414 0.000000 0
M  V30 102 C -1.269262 -1.561414 0.000000 0
M  V30 103 C -1.983712 -1.973914 0.000000 0
M  V30 104 N -1.983712 -2.798914 0.000000 0
M  V30 105 C 0.554813 -0.323914 0.000000 0
M  V30 106 C 0.554813 0.501086 0.000000 0
M  V30 107 C 1.269263 0.913586 0.000000 0
M  V30 108 N -0.159637 0.913586 0.000000 0
M  V30 109 O 1.269263 1.738586 0.000000 0
M  V30 110 N 0.554813 -1.973914 0.000000 0
M  V30 111 C 0.554813 -2.798914 0.000000 0
M  V30 112 N -0.159637 -3.211414 0.000000 0
M  V30 113 N 1.269263 -3.211414 0.000000 0
M  V30 114 C -0.159637 -0.736414 0.000000 0
M  V30 115 C -0.159637 -1.561414 0.000000 0
M  V30 116 C 1.639138 -0.323914 0.000000 0
M  V30 117 C 1.639138 0.501086 0.000000 0
M  V30 118 C 2.353588 0.913586 0.000000 0
M  V30 119 N 0.924688 0.913586 0.000000 0
M  V30 120 O 2.353588 1.738586 0.000000 0
M  V30 121 N 1.639138 -1.973914 0.000000 0
M  V30 122 C 1.639138 -2.798914 0.000000 0
M  V30 123 N 0.924688 -3.211414 0.000000 0
M  V30 124 N 2.353588 -3.211414 0.000000 0
M  V30 125 C 0.924688 -0.736414 0.000000 0
M  V30 126 C 0.924688 -1.561414 0.000000 0
M  V30 127 C 1.664437 1.148913 0.000000 0
M  V30 128 C 1.664437 1.973913 0.000000 0
M  V30 129 C 2.378887 2.386413 0.000000 0
M  V30 130 N 0.949987 2.386413 0.000000 0
M  V30 131 O 2.378887 3.211413 0.000000 0
M  V30 132 C 0.949987 0.736413 0.000000 0
M  V30 133 C 0.949987 -0.088587 0.000000 0
M  V30 134 C 0.235538 -0.501087 0.000000 0
M  V30 135 N 0.235538 -1.326087 0.000000 0
M  V30 136 C -0.184800 1.973913 0.000000 0
M  V30 137 C 0.529650 2.386413 0.000000 0
M  V30 138 N -0.899525 2.386413 0.000000 0
M  V30 139 O 0.529650 3.211413 0.000000 0
M  V30 140 C 0.529925 -0.088587 0.000000 0
M  V30 141 C 1.244375 -0.501087 0.000000 0
M  V30 142 C 1.958825 -0.088587 0.000000 0
M  V30 143 C 1.958825 0.736413 0.000000 0
M  V30 144 C 1.244375 1.148913 0.000000 0
M  V30 145 C 0.529925 0.736413 0.000000 0
M  V30 146 C -0.184800 1.148913 0.000000 0
M  V30 147 C -0.184800 0.501086 0.000000 0
M  V30 148 C 0.529650 0.913586 0.000000 0
M  V30 149 N -0.899525 0.913586 0.000000 0
M  V30 150 O 0.529650 1.738586 0.000000 0
M  V30 151 C 0.529925 -1.561414 0.000000 0
M  V30 152 C 1.244375 -1.973914 0.000000 0
M  V30 153 C 1.958825 -1.561414 0.000000 0
M  V30 154 C 1.958825 -0.736414 0.000000 0
M  V30 155 C 1.244375 -0.323914 0.000000 0
M  V30 156 C 0.529925 -0.736414 0.000000 0
M  V30 157 C -0.184800 -0.323914 0.000000 0
M  V30 158 C 0.185075 0.501086 0.000000 0
M  V30 159 C 0.899525 0.913586 0.000000 0
M  V30 160 N -0.529650 0.913586 0.000000 0
M  V30 161 O 0.899525 1.738586 0.000000 0
M  V30 162 C 0.899800 -1.561414 0.000000 0
M  V30 163 C 1.614250 -1.973914 0.000000 0
M  V30 164 C 2.328700 -1.561414 0.000000 0
M  V30 165 C 2.328700 -0.736414 0.000000 0
M  V30 166 C 1.614250 -0.323914 0.000000 0
M  V30 167 C 0.899800 -0.736414 0.000000 0
M  V30 168 C 0.185075 -0.323914 0.000000 0
M  V30 169 C 0.185075 1.973913 0.000000 0
M  V30 170 C 0.899525 2.386413 0.000000 0
M  V30 171 N -0.529650 2.386413 0.000000 0
M  V30 172 O 0.899525 3.211413 0.000000 0
M  V30 173 C 0.899800 -0.088587 0.000000 0
M  V30 174 C 1.614250 -0.501087 0.000000 0
M  V30 175 C 2.328700 -0.088587 0.000000 0
M  V30 176 C 2.328700 0.736413 0.000000 0
M  V30 177 C 1.614250 1.148913 0.000000 0
M  V30 178 C 0.899800 0.736413 0.000000 0
M  V30 179 C 0.185075 1.148913 0.000000 0
M  V30 END ATOM
M  V30 BEGIN BOND
M  V30 1 2 5 7
M  V30 2 1 4 6
M  V30 3 1 4 5
M  V30 4 1 4 3 CFG=3
M  V30 5 1 8 13
M  V30 6 1 8 9
M  V30 7 2 9 10
M  V30 8 1 9 11
M  V30 9 1 3 12
M  V30 10 1 12 13
M  V30 11 1 1 6
M  V30 12 1 5 16
M  V30 13 1 14 15
M  V30 14 1 14 16
M  V30 15 2 15 17
M  V30 16 1 15 21
M  V30 17 2 20 22
M  V30 18 1 19 21
M  V30 19 1 19 20
M  V30 20 1 19 18 CFG=3
M  V30 21 1 23 28
M  V30 22 1 23 24
M  V30 23 2 24 25
M  V30 24 1 24 26
M  V30 25 1 18 27
M  V30 26 1 27 28
M  V30 27 1 20 32
M  V30 28 2 31 33
M  V30 29 1 30 32
M  V30 30 1 30 31
M  V30 31 1 30 29 CFG=3
M  V30 32 1 29 34
M  V30 33 1 34 35
M  V30 34 1 35 36
M  V30 35 1 36 37
M  V30 36 1 31 138
M  V30 37 2 40 42
M  V30 38 1 39 41
M  V30 39 1 39 40
M  V30 40 1 39 38 CFG=3
M  V30 41 1 43 48
M  V30 42 1 43 44
M  V30 43 2 44 45
M  V30 44 1 44 46
M  V30 45 1 38 47
M  V30 46 1 47 48
M  V30 47 2 51 53
M  V30 48 1 50 52
M  V30 49 1 50 51
M  V30 50 1 50 49 CFG=3
M  V30 51 1 54 59
M  V30 52 1 54 55
M  V30 53 2 55 56
M  V30 54 1 55 57
M  V30 55 1 49 58
M  V30 56 1 58 59
M  V30 57 1 40 52
M  V30 58 1 51 63
M  V30 59 2 62 64
M  V30 60 1 61 63
M  V30 61 1 61 62
M  V30 62 1 61 60 CFG=3
M  V30 63 1 60 65
M  V30 64 1 65 66
M  V30 65 1 66 67
M  V30 66 1 67 68
M  V30 67 1 62 130
M  V30 68 2 72 74
M  V30 69 1 71 73
M  V30 70 1 71 72
M  V30 71 1 71 70 CFG=3
M  V30 72 1 75 80
M  V30 73 1 75 76
M  V30 74 2 76 77
M  V30 75 1 76 78
M  V30 76 1 70 79
M  V30 77 1 79 80
M  V30 78 1 69 73
M  V30 79 1 72 83
M  V30 80 1 81 82
M  V30 81 1 81 83
M  V30 82 2 82 84
M  V30 83 1 82 88
M  V30 84 2 87 89
M  V30 85 1 86 88
M  V30 86 1 86 87
M  V30 87 1 86 85 CFG=3
M  V30 88 1 90 95
M  V30 89 1 90 91
M  V30 90 2 91 92
M  V30 91 1 91 93
M  V30 92 1 85 94
M  V30 93 1 94 95
M  V30 94 1 87 99
M  V30 95 2 98 100
M  V30 96 1 97 99
M  V30 97 1 97 98
M  V30 98 1 97 96 CFG=3
M  V30 99 1 96 101
M  V30 100 1 101 102
M  V30 101 1 102 103
M  V30 102 1 103 104
M  V30 103 1 98 149
M  V30 104 2 107 109
M  V30 105 1 106 108
M  V30 106 1 106 107
M  V30 107 1 106 105 CFG=3
M  V30 108 1 110 115
M  V30 109 1 110 111
M  V30 110 2 111 112
M  V30 111 1 111 113
M  V30 112 1 105 114
M  V30 113 1 114 115
M  V30 114 2 118 120
M  V30 115 1 117 119
M  V30 116 1 117 118
M  V30 117 1 117 116 CFG=3
M  V30 118 1 121 126
M  V30 119 1 121 122
M  V30 120 2 122 123
M  V30 121 1 122 124
M  V30 122 1 116 125
M  V30 123 1 125 126
M  V30 124 1 107 119
M  V30 125 1 68 118
M  V30 126 2 129 131
M  V30 127 1 128 130
M  V30 128 1 128 129
M  V30 129 1 128 127 CFG=3
M  V30 130 1 127 132
M  V30 131 1 132 133
M  V30 132 1 133 134
M  V30 133 1 134 135
M  V30 134 1 2 129
M  V30 135 1 145 140
M  V30 136 2 141 140
M  V30 137 1 142 141
M  V30 138 2 143 142
M  V30 139 1 144 143
M  V30 140 2 145 144
M  V30 141 1 146 145
M  V30 142 1 136 146 CFG=3
M  V30 143 1 136 137
M  V30 144 1 136 138
M  V30 145 2 137 139
M  V30 146 1 137 171
M  V30 147 1 156 151
M  V30 148 2 152 151
M  V30 149 1 153 152
M  V30 150 2 154 153
M  V30 151 1 155 154
M  V30 152 2 156 155
M  V30 153 1 157 156
M  V30 154 1 147 157 CFG=3
M  V30 155 1 147 148
M  V30 156 1 147 149
M  V30 157 2 148 150
M  V30 158 1 148 160
M  V30 159 1 167 162
M  V30 160 2 163 162
M  V30 161 1 164 163
M  V30 162 2 165 164
M  V30 163 1 166 165
M  V30 164 2 167 166
M  V30 165 1 168 167
M  V30 166 1 158 168 CFG=3
M  V30 167 1 158 159
M  V30 168 1 158 160
M  V30 169 2 159 161
M  V30 170 1 108 159
M  V30 171 1 178 173
M  V30 172 2 174 173
M  V30 173 1 175 174
M  V30 174 2 176 175
M  V30 175 1 177 176
M  V30 176 2 178 177
M  V30 177 1 179 178
M  V30 178 1 169 179 CFG=3
M  V30 179 1 169 170
M  V30 180 1 169 171
M  V30 181 2 170 172
M  V30 182 1 41 170
M  V30 END BOND
M  V30 BEGIN SGROUP
M  V30 1 SUP 1 ATOMS=(1 1) XBONDS=(1 11) CLASS=LGRP LABEL=H
M  V30 2 SUP 2 ATOMS=(1 2) XBONDS=(1 134) CLASS=LGRP LABEL=OH
M  V30 3 SUP 3 ATOMS=(11 3 4 5 6 7 8 9 10 11 12 13) XBONDS=(2 11 12) CLASS=AA -
M  V30 LABEL=R CSTATE=(4 11 0.145979 0.000000 0) CSTATE=(4 12 -1.282921 -
M  V30 0.000000 0) SAP=(3 1 6 Al) SAP=(3 5 16 Br)
M  V30 4 SUP 4 ATOMS=(4 14 15 16 17) XBONDS=(2 12 16) CLASS=AA LABEL=G -
M  V30 CSTATE=(4 12 1.059025 0.000000 0) CSTATE=(4 16 -0.369875 0.000000 0) -
M  V30 SAP=(3 16 5 Al) SAP=(3 15 21 Br)
M  V30 5 SUP 5 ATOMS=(11 18 19 20 21 22 23 24 25 26 27 28) XBONDS=(2 16 27) -
M  V30 CLASS=AA LABEL=R CSTATE=(4 16 1.059025 0.000000 0) CSTATE=(4 27 -
M  V30 -0.369875 0.000000 0) SAP=(3 21 15 Al) SAP=(3 20 32 Br)
M  V30 6 SUP 6 ATOMS=(9 29 30 31 32 33 34 35 36 37) XBONDS=(2 27 36) CLASS=AA -
M  V30 LABEL=K CSTATE=(4 27 1.059025 0.000000 0) CSTATE=(4 36 -0.369875 -
M  V30 0.000000 0) SAP=(3 32 20 Al) SAP=(3 31 138 Br)
M  V30 7 SUP 7 ATOMS=(11 38 39 40 41 42 43 44 45 46 47 48) XBONDS=(2 182 57) -
M  V30 CLASS=AA LABEL=R CSTATE=(4 182 1.059162 0.000000 0) CSTATE=(4 57 -
M  V30 -1.059025 0.000000 0) SAP=(3 41 170 Al) SAP=(3 40 52 Br)
M  V30 8 SUP 8 ATOMS=(11 49 50 51 52 53 54 55 56 57 58 59) XBONDS=(2 57 58) -
M  V30 CLASS=AA LABEL=R CSTATE=(4 57 -0.369875 0.000000 0) CSTATE=(4 58 -
M  V30 -1.798775 0.000000 0) SAP=(3 40 52 Al) SAP=(3 51 63 Br)
M  V30 9 SUP 9 ATOMS=(9 60 61 62 63 64 65 66 67 68) XBONDS=(3 58 67 125) -
M  V30 CLASS=AA LABEL=K CSTATE=(4 58 1.059025 -0.000000 0) CSTATE=(4 67 -
M  V30 -0.369875 -0.000000 0) CSTATE=(4 125 2.487925 2.239673 0) SAP=(3 63 51 -
M  V30 Al) SAP=(3 62 130 Br) SAP=(3 68 118 Cx)
M  V30 10 SUP 10 ATOMS=(1 69) XBONDS=(1 78) CLASS=LGRP LABEL=H
M  V30 11 SUP 11 ATOMS=(11 70 71 72 73 74 75 76 77 78 79 80) XBONDS=(2 78 79) -
M  V30 CLASS=AA LABEL=R CSTATE=(4 78 0.145979 0.000000 0) CSTATE=(4 79 -
M  V30 -1.282921 0.000000 0) SAP=(3 69 73 Al) SAP=(3 72 83 Br)
M  V30 12 SUP 12 ATOMS=(4 81 82 83 84) XBONDS=(2 79 83) CLASS=AA LABEL=G -
M  V30 CSTATE=(4 79 1.059025 0.000000 0) CSTATE=(4 83 -0.369875 0.000000 0) -
M  V30 SAP=(3 83 72 Al) SAP=(3 82 88 Br)
M  V30 13 SUP 13 ATOMS=(11 85 86 87 88 89 90 91 92 93 94 95) XBONDS=(2 83 94) -
M  V30 CLASS=AA LABEL=R CSTATE=(4 83 1.059025 0.000000 0) CSTATE=(4 94 -
M  V30 -0.369875 0.000000 0) SAP=(3 88 82 Al) SAP=(3 87 99 Br)
M  V30 14 SUP 14 ATOMS=(9 96 97 98 99 100 101 102 103 104) XBONDS=(2 94 103) -
M  V30 CLASS=AA LABEL=K CSTATE=(4 94 1.059025 0.000000 0) CSTATE=(4 103 -
M  V30 -0.369875 0.000000 0) SAP=(3 99 87 Al) SAP=(3 98 149 Br)
M  V30 15 SUP 15 ATOMS=(11 105 106 107 108 109 110 111 112 113 114 115) -
M  V30 XBONDS=(2 170 124) CLASS=AA LABEL=R CSTATE=(4 170 1.059162 0.000000 0) -
M  V30 CSTATE=(4 124 -0.344575 0.000000 0) SAP=(3 108 159 Al) SAP=(3 107 119 -
M  V30 Br)
M  V30 16 SUP 16 ATOMS=(11 116 117 118 119 120 121 122 123 124 125 126) -
M  V30 XBONDS=(2 124 125) CLASS=AA LABEL=R CSTATE=(4 124 -1.084325 0.000000 -
M  V30 0) CSTATE=(4 125 -0.344575 1.472827 0) SAP=(3 107 119 Al) SAP=(3 68 -
M  V30 118 Cx)
M  V30 17 SUP 17 ATOMS=(9 127 128 129 130 131 132 133 134 135) XBONDS=(2 67 -
M  V30 134) CLASS=AA LABEL=K CSTATE=(4 67 1.059025 0.000000 0) CSTATE=(4 134 -
M  V30 -0.145339 0.000000 0) SAP=(3 130 62 Al) SAP=(3 2 129 Br)
M  V30 18 SUP 18 ATOMS=(11 136 137 138 139 140 141 142 143 144 145 146) -
M  V30 XBONDS=(2 36 146) CLASS=AA LABEL=F CSTATE=(4 36 1.059162 0.000000 0) -
M  V30 CSTATE=(4 146 -0.370013 0.000000 0) SAP=(3 138 31 Al) SAP=(3 137 171 Br)
M  V30 19 SUP 19 ATOMS=(11 147 148 149 150 151 152 153 154 155 156 157) -
M  V30 XBONDS=(2 103 158) CLASS=AA LABEL=F CSTATE=(4 103 1.059162 0.000000 0) -
M  V30 CSTATE=(4 158 -0.370013 0.000000 0) SAP=(3 149 98 Al) SAP=(3 148 160 Br)
M  V30 20 SUP 20 ATOMS=(11 158 159 160 161 162 163 164 165 166 167 168) -
M  V30 XBONDS=(2 158 170) CLASS=AA LABEL=F CSTATE=(4 158 1.059300 0.000000 0) -
M  V30 CSTATE=(4 170 -1.059162 0.000000 0) SAP=(3 160 148 Al) SAP=(3 108 159 -
M  V30 Br)
M  V30 21 SUP 21 ATOMS=(11 169 170 171 172 173 174 175 176 177 178 179) -
M  V30 XBONDS=(2 146 182) CLASS=AA LABEL=F CSTATE=(4 146 1.059300 0.000000 0) -
M  V30 CSTATE=(4 182 -1.059162 0.000000 0) SAP=(3 171 137 Al) SAP=(3 41 170 Br)
M  V30 END SGROUP
M  V30 END CTAB
M  END
$$$$
