(RGRKIIRR)2KK.sdf
  ChemDraw04101916112D

  0  0  0     0  0              0 V3000
M  V30 BEGIN CTAB
M  V30 COUNTS 171 170 21 0 1
M  V30 BEGIN ATOM
M  V30 1 H -2.232908 1.561413 0.000000 0
M  V30 2 O 2.233548 1.561413 0.000000 0
M  V30 3 C -1.664437 0.323913 0.000000 0
M  V30 4 C -1.664437 1.148913 0.000000 0
M  V30 5 C -0.949987 1.561413 0.000000 0
M  V30 6 N -2.378887 1.561413 0.000000 0
M  V30 7 O -0.949987 2.386413 0.000000 0
M  V30 8 N -1.664437 -1.326087 0.000000 0
M  V30 9 C -1.664437 -2.151087 0.000000 0
M  V30 10 N -2.378887 -2.563587 0.000000 0
M  V30 11 N -0.949987 -2.563587 0.000000 0
M  V30 12 C -2.378887 -0.088587 0.000000 0
M  V30 13 C -2.378887 -0.913587 0.000000 0
M  V30 14 C -1.294562 1.148913 0.000000 0
M  V30 15 C -0.580112 1.561413 0.000000 0
M  V30 16 N -2.009012 1.561413 0.000000 0
M  V30 17 O -0.580112 2.386413 0.000000 0
M  V30 18 C -0.924687 0.323913 0.000000 0
M  V30 19 C -0.924687 1.148913 0.000000 0
M  V30 20 C -0.210237 1.561413 0.000000 0
M  V30 21 N -1.639137 1.561413 0.000000 0
M  V30 22 O -0.210237 2.386413 0.000000 0
M  V30 23 N -0.924687 -1.326087 0.000000 0
M  V30 24 C -0.924687 -2.151087 0.000000 0
M  V30 25 N -1.639137 -2.563587 0.000000 0
M  V30 26 N -0.210237 -2.563587 0.000000 0
M  V30 27 C -1.639137 -0.088587 0.000000 0
M  V30 28 C -1.639137 -0.913587 0.000000 0
M  V30 29 C -0.554812 0.323913 0.000000 0
M  V30 30 C -0.554812 1.148913 0.000000 0
M  V30 31 C 0.159638 1.561413 0.000000 0
M  V30 32 N -1.269262 1.561413 0.000000 0
M  V30 33 O 0.159638 2.386413 0.000000 0
M  V30 34 C -1.269262 -0.088587 0.000000 0
M  V30 35 C -1.269262 -0.913587 0.000000 0
M  V30 36 C -1.983712 -1.326087 0.000000 0
M  V30 37 N -1.983712 -2.151087 0.000000 0
M  V30 38 C -0.184937 2.798913 0.000000 0
M  V30 39 C -0.184937 1.973913 0.000000 0
M  V30 40 C 0.529513 1.561413 0.000000 0
M  V30 41 N -0.899388 1.561413 0.000000 0
M  V30 42 O 0.529513 0.736413 0.000000 0
M  V30 43 C 0.529513 3.211413 0.000000 0
M  V30 44 C -0.899388 3.211413 0.000000 0
M  V30 45 C -0.899388 4.036413 0.000000 0
M  V30 46 H -0.184937 1.148913 0.000000 0
M  V30 47 C 0.184938 2.798913 0.000000 0
M  V30 48 C 0.184938 1.973913 0.000000 0
M  V30 49 C 0.899388 1.561413 0.000000 0
M  V30 50 N -0.529512 1.561413 0.000000 0
M  V30 51 O 0.899388 0.736413 0.000000 0
M  V30 52 C 0.899388 3.211413 0.000000 0
M  V30 53 C -0.529512 3.211413 0.000000 0
M  V30 54 C -0.529512 4.036413 0.000000 0
M  V30 55 H 0.184938 1.148913 0.000000 0
M  V30 56 C 0.554813 0.323913 0.000000 0
M  V30 57 C 0.554813 1.148913 0.000000 0
M  V30 58 C 1.269263 1.561413 0.000000 0
M  V30 59 N -0.159637 1.561413 0.000000 0
M  V30 60 O 1.269263 2.386413 0.000000 0
M  V30 61 N 0.554813 -1.326087 0.000000 0
M  V30 62 C 0.554813 -2.151087 0.000000 0
M  V30 63 N -0.159637 -2.563587 0.000000 0
M  V30 64 N 1.269263 -2.563587 0.000000 0
M  V30 65 C -0.159637 -0.088587 0.000000 0
M  V30 66 C -0.159637 -0.913587 0.000000 0
M  V30 67 C 0.924688 0.323913 0.000000 0
M  V30 68 C 0.924688 1.148913 0.000000 0
M  V30 69 C 1.639138 1.561413 0.000000 0
M  V30 70 N 0.210238 1.561413 0.000000 0
M  V30 71 O 1.639138 2.386413 0.000000 0
M  V30 72 N 0.924688 -1.326087 0.000000 0
M  V30 73 C 0.924688 -2.151087 0.000000 0
M  V30 74 N 0.210238 -2.563587 0.000000 0
M  V30 75 N 1.639138 -2.563587 0.000000 0
M  V30 76 C 0.210238 -0.088587 0.000000 0
M  V30 77 C 0.210238 -0.913587 0.000000 0
M  V30 78 C 1.294563 0.323914 0.000000 0
M  V30 79 C 1.294563 1.148914 0.000000 0
M  V30 80 C 2.009013 1.561414 0.000000 0
M  V30 81 N 0.580113 1.561414 0.000000 0
M  V30 82 O 2.009013 2.386414 0.000000 0
M  V30 83 C 0.580113 -0.088586 0.000000 0
M  V30 84 C 0.580113 -0.913586 0.000000 0
M  V30 85 C -0.134337 -1.326086 0.000000 0
M  V30 86 N -0.134337 -2.151086 0.000000 0
M  V30 87 H -2.232908 0.088587 0.000000 0
M  V30 88 C -1.664437 -1.148913 0.000000 0
M  V30 89 C -1.664437 -0.323913 0.000000 0
M  V30 90 C -0.949987 0.088587 0.000000 0
M  V30 91 N -2.378887 0.088587 0.000000 0
M  V30 92 O -0.949987 0.913587 0.000000 0
M  V30 93 N -1.664437 -2.798913 0.000000 0
M  V30 94 C -1.664437 -3.623913 0.000000 0
M  V30 95 N -2.378887 -4.036413 0.000000 0
M  V30 96 N -0.949987 -4.036413 0.000000 0
M  V30 97 C -2.378887 -1.561413 0.000000 0
M  V30 98 C -2.378887 -2.386413 0.000000 0
M  V30 99 C -1.294562 -0.323913 0.000000 0
M  V30 100 C -0.580112 0.088587 0.000000 0
M  V30 101 N -2.009012 0.088587 0.000000 0
M  V30 102 O -0.580112 0.913587 0.000000 0
M  V30 103 C -0.924687 -1.148913 0.000000 0
M  V30 104 C -0.924687 -0.323913 0.000000 0
M  V30 105 C -0.210237 0.088587 0.000000 0
M  V30 106 N -1.639137 0.088587 0.000000 0
M  V30 107 O -0.210237 0.913587 0.000000 0
M  V30 108 N -0.924687 -2.798913 0.000000 0
M  V30 109 C -0.924687 -3.623913 0.000000 0
M  V30 110 N -1.639137 -4.036413 0.000000 0
M  V30 111 N -0.210237 -4.036413 0.000000 0
M  V30 112 C -1.639137 -1.561413 0.000000 0
M  V30 113 C -1.639137 -2.386413 0.000000 0
M  V30 114 C -0.554812 -1.148913 0.000000 0
M  V30 115 C -0.554812 -0.323913 0.000000 0
M  V30 116 C 0.159638 0.088587 0.000000 0
M  V30 117 N -1.269262 0.088587 0.000000 0
M  V30 118 O 0.159638 0.913587 0.000000 0
M  V30 119 C -1.269262 -1.561413 0.000000 0
M  V30 120 C -1.269262 -2.386413 0.000000 0
M  V30 121 C -1.983712 -2.798913 0.000000 0
M  V30 122 N -1.983712 -3.623913 0.000000 0
M  V30 123 C -0.184937 1.326087 0.000000 0
M  V30 124 C -0.184937 0.501087 0.000000 0
M  V30 125 C 0.529513 0.088587 0.000000 0
M  V30 126 N -0.899388 0.088587 0.000000 0
M  V30 127 O 0.529513 -0.736413 0.000000 0
M  V30 128 C 0.529513 1.738587 0.000000 0
M  V30 129 C -0.899388 1.738587 0.000000 0
M  V30 130 C -0.899388 2.563587 0.000000 0
M  V30 131 H -0.184937 -0.323913 0.000000 0
M  V30 132 C 0.554813 -1.148913 0.000000 0
M  V30 133 C 0.554813 -0.323913 0.000000 0
M  V30 134 C 1.269263 0.088587 0.000000 0
M  V30 135 N -0.159637 0.088587 0.000000 0
M  V30 136 O 1.269263 0.913587 0.000000 0
M  V30 137 N 0.554813 -2.798913 0.000000 0
M  V30 138 C 0.554813 -3.623913 0.000000 0
M  V30 139 N -0.159637 -4.036413 0.000000 0
M  V30 140 N 1.269263 -4.036413 0.000000 0
M  V30 141 C -0.159637 -1.561413 0.000000 0
M  V30 142 C -0.159637 -2.386413 0.000000 0
M  V30 143 C 1.639138 -1.148913 0.000000 0
M  V30 144 C 1.639138 -0.323913 0.000000 0
M  V30 145 C 2.353588 0.088587 0.000000 0
M  V30 146 N 0.924688 0.088587 0.000000 0
M  V30 147 O 2.353588 0.913587 0.000000 0
M  V30 148 N 1.639138 -2.798913 0.000000 0
M  V30 149 C 1.639138 -3.623913 0.000000 0
M  V30 150 N 0.924688 -4.036413 0.000000 0
M  V30 151 N 2.353588 -4.036413 0.000000 0
M  V30 152 C 0.924688 -1.561413 0.000000 0
M  V30 153 C 0.924688 -2.386413 0.000000 0
M  V30 154 C 1.664437 0.323913 0.000000 0
M  V30 155 C 1.664437 1.148913 0.000000 0
M  V30 156 C 2.378887 1.561413 0.000000 0
M  V30 157 N 0.949987 1.561413 0.000000 0
M  V30 158 O 2.378887 2.386413 0.000000 0
M  V30 159 C 0.949987 -0.088587 0.000000 0
M  V30 160 C 0.949987 -0.913587 0.000000 0
M  V30 161 C 0.235538 -1.326087 0.000000 0
M  V30 162 N 0.235538 -2.151087 0.000000 0
M  V30 163 C 0.184938 1.326087 0.000000 0
M  V30 164 C 0.184938 0.501087 0.000000 0
M  V30 165 C 0.899388 0.088587 0.000000 0
M  V30 166 N -0.529512 0.088587 0.000000 0
M  V30 167 O 0.899388 -0.736413 0.000000 0
M  V30 168 C 0.899388 1.738587 0.000000 0
M  V30 169 C -0.529512 1.738587 0.000000 0
M  V30 170 C -0.529512 2.563587 0.000000 0
M  V30 171 H 0.184938 -0.323913 0.000000 0
M  V30 END ATOM
M  V30 BEGIN BOND
M  V30 1 2 5 7
M  V30 2 1 4 6
M  V30 3 1 4 5
M  V30 4 1 4 3 CFG=3
M  V30 5 1 8 13
M  V30 6 1 8 9
M  V30 7 2 9 10
M  V30 8 1 9 11
M  V30 9 1 3 12
M  V30 10 1 12 13
M  V30 11 1 1 6
M  V30 12 1 5 16
M  V30 13 1 14 15
M  V30 14 1 14 16
M  V30 15 2 15 17
M  V30 16 1 15 21
M  V30 17 2 20 22
M  V30 18 1 19 21
M  V30 19 1 19 20
M  V30 20 1 19 18 CFG=3
M  V30 21 1 23 28
M  V30 22 1 23 24
M  V30 23 2 24 25
M  V30 24 1 24 26
M  V30 25 1 18 27
M  V30 26 1 27 28
M  V30 27 1 20 32
M  V30 28 2 31 33
M  V30 29 1 30 32
M  V30 30 1 30 31
M  V30 31 1 30 29 CFG=3
M  V30 32 1 29 34
M  V30 33 1 34 35
M  V30 34 1 35 36
M  V30 35 1 36 37
M  V30 36 1 31 41
M  V30 37 1 40 50
M  V30 38 2 40 42
M  V30 39 1 39 41
M  V30 40 1 39 40
M  V30 41 1 38 39
M  V30 42 1 38 43 CFG=3
M  V30 43 1 38 44
M  V30 44 1 44 45
M  V30 45 1 39 46 CFG=3
M  V30 46 1 49 59
M  V30 47 2 49 51
M  V30 48 1 48 50
M  V30 49 1 48 49
M  V30 50 1 47 48
M  V30 51 1 47 52 CFG=3
M  V30 52 1 47 53
M  V30 53 1 53 54
M  V30 54 1 48 55 CFG=3
M  V30 55 2 58 60
M  V30 56 1 57 59
M  V30 57 1 57 58
M  V30 58 1 57 56 CFG=3
M  V30 59 1 61 66
M  V30 60 1 61 62
M  V30 61 2 62 63
M  V30 62 1 62 64
M  V30 63 1 56 65
M  V30 64 1 65 66
M  V30 65 1 58 70
M  V30 66 2 69 71
M  V30 67 1 68 70
M  V30 68 1 68 69
M  V30 69 1 68 67 CFG=3
M  V30 70 1 72 77
M  V30 71 1 72 73
M  V30 72 2 73 74
M  V30 73 1 73 75
M  V30 74 1 67 76
M  V30 75 1 76 77
M  V30 76 1 69 81
M  V30 77 2 80 82
M  V30 78 1 79 81
M  V30 79 1 79 80
M  V30 80 1 79 78 CFG=3
M  V30 81 1 78 83
M  V30 82 1 83 84
M  V30 83 1 84 85
M  V30 84 1 85 86
M  V30 85 1 80 157
M  V30 86 2 90 92
M  V30 87 1 89 91
M  V30 88 1 89 90
M  V30 89 1 89 88 CFG=3
M  V30 90 1 93 98
M  V30 91 1 93 94
M  V30 92 2 94 95
M  V30 93 1 94 96
M  V30 94 1 88 97
M  V30 95 1 97 98
M  V30 96 1 87 91
M  V30 97 1 90 101
M  V30 98 1 99 100
M  V30 99 1 99 101
M  V30 100 2 100 102
M  V30 101 1 100 106
M  V30 102 2 105 107
M  V30 103 1 104 106
M  V30 104 1 104 105
M  V30 105 1 104 103 CFG=3
M  V30 106 1 108 113
M  V30 107 1 108 109
M  V30 108 2 109 110
M  V30 109 1 109 111
M  V30 110 1 103 112
M  V30 111 1 112 113
M  V30 112 1 105 117
M  V30 113 2 116 118
M  V30 114 1 115 117
M  V30 115 1 115 116
M  V30 116 1 115 114 CFG=3
M  V30 117 1 114 119
M  V30 118 1 119 120
M  V30 119 1 120 121
M  V30 120 1 121 122
M  V30 121 1 116 126
M  V30 122 1 125 166
M  V30 123 2 125 127
M  V30 124 1 124 126
M  V30 125 1 124 125
M  V30 126 1 123 124
M  V30 127 1 123 128 CFG=3
M  V30 128 1 123 129
M  V30 129 1 129 130
M  V30 130 1 124 131 CFG=3
M  V30 131 2 134 136
M  V30 132 1 133 135
M  V30 133 1 133 134
M  V30 134 1 133 132 CFG=3
M  V30 135 1 137 142
M  V30 136 1 137 138
M  V30 137 2 138 139
M  V30 138 1 138 140
M  V30 139 1 132 141
M  V30 140 1 141 142
M  V30 141 2 145 147
M  V30 142 1 144 146
M  V30 143 1 144 145
M  V30 144 1 144 143 CFG=3
M  V30 145 1 148 153
M  V30 146 1 148 149
M  V30 147 2 149 150
M  V30 148 1 149 151
M  V30 149 1 143 152
M  V30 150 1 152 153
M  V30 151 1 134 146
M  V30 152 1 86 145
M  V30 153 2 156 158
M  V30 154 1 155 157
M  V30 155 1 155 156
M  V30 156 1 155 154 CFG=3
M  V30 157 1 154 159
M  V30 158 1 159 160
M  V30 159 1 160 161
M  V30 160 1 161 162
M  V30 161 1 2 156
M  V30 162 1 135 165
M  V30 163 2 165 167
M  V30 164 1 164 166
M  V30 165 1 164 165
M  V30 166 1 163 164
M  V30 167 1 163 168 CFG=3
M  V30 168 1 163 169
M  V30 169 1 169 170
M  V30 170 1 164 171 CFG=3
M  V30 END BOND
M  V30 BEGIN SGROUP
M  V30 1 SUP 1 ATOMS=(1 1) XBONDS=(1 11) CLASS=LGRP LABEL=H
M  V30 2 SUP 2 ATOMS=(1 2) XBONDS=(1 161) CLASS=LGRP LABEL=OH
M  V30 3 SUP 3 ATOMS=(11 3 4 5 6 7 8 9 10 11 12 13) XBONDS=(2 11 12) CLASS=AA -
M  V30 LABEL=R CSTATE=(4 11 0.145979 0.000000 0) CSTATE=(4 12 -1.282921 -
M  V30 0.000000 0) SAP=(3 1 6 Al) SAP=(3 5 16 Br)
M  V30 4 SUP 4 ATOMS=(4 14 15 16 17) XBONDS=(2 12 16) CLASS=AA LABEL=G -
M  V30 CSTATE=(4 12 1.059025 0.000000 0) CSTATE=(4 16 -0.369875 0.000000 0) -
M  V30 SAP=(3 16 5 Al) SAP=(3 15 21 Br)
M  V30 5 SUP 5 ATOMS=(11 18 19 20 21 22 23 24 25 26 27 28) XBONDS=(2 16 27) -
M  V30 CLASS=AA LABEL=R CSTATE=(4 16 1.059025 0.000000 0) CSTATE=(4 27 -
M  V30 -0.369875 0.000000 0) SAP=(3 21 15 Al) SAP=(3 20 32 Br)
M  V30 6 SUP 6 ATOMS=(9 29 30 31 32 33 34 35 36 37) XBONDS=(2 27 36) CLASS=AA -
M  V30 LABEL=K CSTATE=(4 27 1.059025 0.000000 0) CSTATE=(4 36 -0.369875 -
M  V30 0.000000 0) SAP=(3 32 20 Al) SAP=(3 31 41 Br)
M  V30 7 SUP 7 ATOMS=(9 38 39 40 41 42 43 44 45 46) XBONDS=(2 36 37) CLASS=AA -
M  V30 LABEL=I CSTATE=(4 36 1.059025 0.000000 0) CSTATE=(4 37 -0.369875 -
M  V30 0.000000 0) SAP=(3 41 31 Al) SAP=(3 40 50 Br)
M  V30 8 SUP 8 ATOMS=(9 47 48 49 50 51 52 53 54 55) XBONDS=(2 37 46) CLASS=AA -
M  V30 LABEL=I CSTATE=(4 37 1.059025 0.000000 0) CSTATE=(4 46 -0.369875 -
M  V30 0.000000 0) SAP=(3 50 40 Al) SAP=(3 49 59 Br)
M  V30 9 SUP 9 ATOMS=(11 56 57 58 59 60 61 62 63 64 65 66) XBONDS=(2 46 65) -
M  V30 CLASS=AA LABEL=R CSTATE=(4 46 1.059025 0.000000 0) CSTATE=(4 65 -
M  V30 -0.369875 0.000000 0) SAP=(3 59 49 Al) SAP=(3 58 70 Br)
M  V30 10 SUP 10 ATOMS=(11 67 68 69 70 71 72 73 74 75 76 77) XBONDS=(2 65 76) -
M  V30 CLASS=AA LABEL=R CSTATE=(4 65 1.059025 0.000000 0) CSTATE=(4 76 -
M  V30 -0.369875 0.000000 0) SAP=(3 70 58 Al) SAP=(3 69 81 Br)
M  V30 11 SUP 11 ATOMS=(9 78 79 80 81 82 83 84 85 86) XBONDS=(3 76 85 152) -
M  V30 CLASS=AA LABEL=K CSTATE=(4 76 1.059025 -0.000000 0) CSTATE=(4 85 -
M  V30 -0.369875 -0.000000 0) CSTATE=(4 152 2.487925 2.239673 0) SAP=(3 81 69 -
M  V30 Al) SAP=(3 80 157 Br) SAP=(3 86 145 Cx)
M  V30 12 SUP 12 ATOMS=(1 87) XBONDS=(1 96) CLASS=LGRP LABEL=H
M  V30 13 SUP 13 ATOMS=(11 88 89 90 91 92 93 94 95 96 97 98) XBONDS=(2 96 97) -
M  V30 CLASS=AA LABEL=R CSTATE=(4 96 0.145979 0.000000 0) CSTATE=(4 97 -
M  V30 -1.282921 0.000000 0) SAP=(3 87 91 Al) SAP=(3 90 101 Br)
M  V30 14 SUP 14 ATOMS=(4 99 100 101 102) XBONDS=(2 97 101) CLASS=AA LABEL=G -
M  V30 CSTATE=(4 97 1.059025 0.000000 0) CSTATE=(4 101 -0.369875 0.000000 0) -
M  V30 SAP=(3 101 90 Al) SAP=(3 100 106 Br)
M  V30 15 SUP 15 ATOMS=(11 103 104 105 106 107 108 109 110 111 112 113) -
M  V30 XBONDS=(2 101 112) CLASS=AA LABEL=R CSTATE=(4 101 1.059025 0.000000 0) -
M  V30 CSTATE=(4 112 -0.369875 0.000000 0) SAP=(3 106 100 Al) SAP=(3 105 117 -
M  V30 Br)
M  V30 16 SUP 16 ATOMS=(9 114 115 116 117 118 119 120 121 122) XBONDS=(2 112 -
M  V30 121) CLASS=AA LABEL=K CSTATE=(4 112 1.059025 0.000000 0) CSTATE=(4 121 -
M  V30 -0.369875 0.000000 0) SAP=(3 117 105 Al) SAP=(3 116 126 Br)
M  V30 17 SUP 17 ATOMS=(9 123 124 125 126 127 128 129 130 131) XBONDS=(2 121 -
M  V30 122) CLASS=AA LABEL=I CSTATE=(4 121 1.059025 -0.000000 0) CSTATE=(4 -
M  V30 122 -0.369875 -0.000000 0) SAP=(3 126 116 Al) SAP=(3 125 166 Br)
M  V30 18 SUP 18 ATOMS=(11 132 133 134 135 136 137 138 139 140 141 142) -
M  V30 XBONDS=(2 162 151) CLASS=AA LABEL=R CSTATE=(4 162 1.059025 0.000000 0) -
M  V30 CSTATE=(4 151 -0.344575 0.000000 0) SAP=(3 135 165 Al) SAP=(3 134 146 -
M  V30 Br)
M  V30 19 SUP 19 ATOMS=(11 143 144 145 146 147 148 149 150 151 152 153) -
M  V30 XBONDS=(2 151 152) CLASS=AA LABEL=R CSTATE=(4 151 -1.084325 0.000000 -
M  V30 0) CSTATE=(4 152 -0.344575 1.472827 0) SAP=(3 134 146 Al) SAP=(3 86 -
M  V30 145 Cx)
M  V30 20 SUP 20 ATOMS=(9 154 155 156 157 158 159 160 161 162) XBONDS=(2 85 -
M  V30 161) CLASS=AA LABEL=K CSTATE=(4 85 1.059025 0.000000 0) CSTATE=(4 161 -
M  V30 -0.145339 0.000000 0) SAP=(3 157 80 Al) SAP=(3 2 156 Br)
M  V30 21 SUP 21 ATOMS=(9 163 164 165 166 167 168 169 170 171) XBONDS=(2 122 -
M  V30 162) CLASS=AA LABEL=I CSTATE=(4 122 1.059025 0.000000 0) CSTATE=(4 162 -
M  V30 -1.059025 0.000000 0) SAP=(3 166 125 Al) SAP=(3 135 165 Br)
M  V30 END SGROUP
M  V30 END CTAB
M  END
$$$$
