(RGRKFFRR)2KK.sdf
  ChemDraw04101916152D

  0  0  0     0  0              0 V3000
M  V30 BEGIN CTAB
M  V30 COUNTS 183 186 21 0 1
M  V30 BEGIN ATOM
M  V30 1 H -1.900846 2.386413 0.000000 0
M  V30 2 O 2.565611 2.386413 0.000000 0
M  V30 3 C -1.332374 1.148913 0.000000 0
M  V30 4 C -1.332374 1.973913 0.000000 0
M  V30 5 C -0.617924 2.386413 0.000000 0
M  V30 6 N -2.046825 2.386413 0.000000 0
M  V30 7 O -0.617924 3.211413 0.000000 0
M  V30 8 N -1.332374 -0.501087 0.000000 0
M  V30 9 C -1.332374 -1.326087 0.000000 0
M  V30 10 N -2.046825 -1.738587 0.000000 0
M  V30 11 N -0.617924 -1.738587 0.000000 0
M  V30 12 C -2.046825 0.736413 0.000000 0
M  V30 13 C -2.046825 -0.088587 0.000000 0
M  V30 14 C -0.962499 1.973913 0.000000 0
M  V30 15 C -0.248049 2.386413 0.000000 0
M  V30 16 N -1.676950 2.386413 0.000000 0
M  V30 17 O -0.248049 3.211413 0.000000 0
M  V30 18 C -0.592624 1.148913 0.000000 0
M  V30 19 C -0.592624 1.973913 0.000000 0
M  V30 20 C 0.121825 2.386413 0.000000 0
M  V30 21 N -1.307075 2.386413 0.000000 0
M  V30 22 O 0.121825 3.211413 0.000000 0
M  V30 23 N -0.592624 -0.501087 0.000000 0
M  V30 24 C -0.592624 -1.326087 0.000000 0
M  V30 25 N -1.307075 -1.738587 0.000000 0
M  V30 26 N 0.121825 -1.738587 0.000000 0
M  V30 27 C -1.307075 0.736413 0.000000 0
M  V30 28 C -1.307075 -0.088587 0.000000 0
M  V30 29 C -0.222750 1.148913 0.000000 0
M  V30 30 C -0.222750 1.973913 0.000000 0
M  V30 31 C 0.491700 2.386413 0.000000 0
M  V30 32 N -0.937199 2.386413 0.000000 0
M  V30 33 O 0.491700 3.211413 0.000000 0
M  V30 34 C -0.937199 0.736413 0.000000 0
M  V30 35 C -0.937199 -0.088587 0.000000 0
M  V30 36 C -1.651649 -0.501087 0.000000 0
M  V30 37 N -1.651649 -1.326087 0.000000 0
M  V30 38 C 0.886876 1.148913 0.000000 0
M  V30 39 C 0.886876 1.973913 0.000000 0
M  V30 40 C 1.601326 2.386413 0.000000 0
M  V30 41 N 0.172425 2.386413 0.000000 0
M  V30 42 O 1.601326 3.211413 0.000000 0
M  V30 43 N 0.886876 -0.501087 0.000000 0
M  V30 44 C 0.886876 -1.326087 0.000000 0
M  V30 45 N 0.172425 -1.738587 0.000000 0
M  V30 46 N 1.601326 -1.738587 0.000000 0
M  V30 47 C 0.172425 0.736413 0.000000 0
M  V30 48 C 0.172425 -0.088587 0.000000 0
M  V30 49 C 1.256751 1.148913 0.000000 0
M  V30 50 C 1.256751 1.973913 0.000000 0
M  V30 51 C 1.971200 2.386413 0.000000 0
M  V30 52 N 0.542300 2.386413 0.000000 0
M  V30 53 O 1.971200 3.211413 0.000000 0
M  V30 54 N 1.256751 -0.501087 0.000000 0
M  V30 55 C 1.256751 -1.326087 0.000000 0
M  V30 56 N 0.542300 -1.738587 0.000000 0
M  V30 57 N 1.971200 -1.738587 0.000000 0
M  V30 58 C 0.542300 0.736413 0.000000 0
M  V30 59 C 0.542300 -0.088587 0.000000 0
M  V30 60 C 1.626625 1.148914 0.000000 0
M  V30 61 C 1.626625 1.973914 0.000000 0
M  V30 62 C 2.341075 2.386414 0.000000 0
M  V30 63 N 0.912176 2.386414 0.000000 0
M  V30 64 O 2.341075 3.211414 0.000000 0
M  V30 65 C 0.912176 0.736414 0.000000 0
M  V30 66 C 0.912176 -0.088586 0.000000 0
M  V30 67 C 0.197726 -0.501086 0.000000 0
M  V30 68 N 0.197726 -1.326086 0.000000 0
M  V30 69 H -1.900846 0.913586 0.000000 0
M  V30 70 C -1.332374 -0.323914 0.000000 0
M  V30 71 C -1.332374 0.501086 0.000000 0
M  V30 72 C -0.617924 0.913586 0.000000 0
M  V30 73 N -2.046825 0.913586 0.000000 0
M  V30 74 O -0.617924 1.738586 0.000000 0
M  V30 75 N -1.332374 -1.973914 0.000000 0
M  V30 76 C -1.332374 -2.798914 0.000000 0
M  V30 77 N -2.046825 -3.211414 0.000000 0
M  V30 78 N -0.617924 -3.211414 0.000000 0
M  V30 79 C -2.046825 -0.736414 0.000000 0
M  V30 80 C -2.046825 -1.561414 0.000000 0
M  V30 81 C -0.962499 0.501086 0.000000 0
M  V30 82 C -0.248049 0.913586 0.000000 0
M  V30 83 N -1.676950 0.913586 0.000000 0
M  V30 84 O -0.248049 1.738586 0.000000 0
M  V30 85 C -0.592624 -0.323914 0.000000 0
M  V30 86 C -0.592624 0.501086 0.000000 0
M  V30 87 C 0.121825 0.913586 0.000000 0
M  V30 88 N -1.307075 0.913586 0.000000 0
M  V30 89 O 0.121825 1.738586 0.000000 0
M  V30 90 N -0.592624 -1.973914 0.000000 0
M  V30 91 C -0.592624 -2.798914 0.000000 0
M  V30 92 N -1.307075 -3.211414 0.000000 0
M  V30 93 N 0.121825 -3.211414 0.000000 0
M  V30 94 C -1.307075 -0.736414 0.000000 0
M  V30 95 C -1.307075 -1.561414 0.000000 0
M  V30 96 C -0.222750 -0.323914 0.000000 0
M  V30 97 C -0.222750 0.501086 0.000000 0
M  V30 98 C 0.491700 0.913586 0.000000 0
M  V30 99 N -0.937199 0.913586 0.000000 0
M  V30 100 O 0.491700 1.738586 0.000000 0
M  V30 101 C -0.937199 -0.736414 0.000000 0
M  V30 102 C -0.937199 -1.561414 0.000000 0
M  V30 103 C -1.651649 -1.973914 0.000000 0
M  V30 104 N -1.651649 -2.798914 0.000000 0
M  V30 105 C 0.886876 -0.323914 0.000000 0
M  V30 106 C 0.886876 0.501086 0.000000 0
M  V30 107 C 1.601326 0.913586 0.000000 0
M  V30 108 N 0.172425 0.913586 0.000000 0
M  V30 109 O 1.601326 1.738586 0.000000 0
M  V30 110 N 0.886876 -1.973914 0.000000 0
M  V30 111 C 0.886876 -2.798914 0.000000 0
M  V30 112 N 0.172425 -3.211414 0.000000 0
M  V30 113 N 1.601326 -3.211414 0.000000 0
M  V30 114 C 0.172425 -0.736414 0.000000 0
M  V30 115 C 0.172425 -1.561414 0.000000 0
M  V30 116 C 1.971201 -0.323914 0.000000 0
M  V30 117 C 1.971201 0.501086 0.000000 0
M  V30 118 C 2.685651 0.913586 0.000000 0
M  V30 119 N 1.256751 0.913586 0.000000 0
M  V30 120 O 2.685651 1.738586 0.000000 0
M  V30 121 N 1.971201 -1.973914 0.000000 0
M  V30 122 C 1.971201 -2.798914 0.000000 0
M  V30 123 N 1.256751 -3.211414 0.000000 0
M  V30 124 N 2.685651 -3.211414 0.000000 0
M  V30 125 C 1.256751 -0.736414 0.000000 0
M  V30 126 C 1.256751 -1.561414 0.000000 0
M  V30 127 C 1.996500 1.148913 0.000000 0
M  V30 128 C 1.996500 1.973913 0.000000 0
M  V30 129 C 2.710950 2.386413 0.000000 0
M  V30 130 N 1.282050 2.386413 0.000000 0
M  V30 131 O 2.710950 3.211413 0.000000 0
M  V30 132 C 1.282050 0.736413 0.000000 0
M  V30 133 C 1.282050 -0.088587 0.000000 0
M  V30 134 C 0.567600 -0.501087 0.000000 0
M  V30 135 N 0.567600 -1.326087 0.000000 0
M  V30 136 C 0.147125 1.148913 0.000000 0
M  V30 137 C 0.147125 1.973913 0.000000 0
M  V30 138 C 0.861575 2.386413 0.000000 0
M  V30 139 N -0.567325 2.386413 0.000000 0
M  V30 140 O 0.861575 3.211413 0.000000 0
M  V30 141 C -0.567325 0.736413 0.000000 0
M  V30 142 C -1.281775 1.148913 0.000000 0
M  V30 143 C -1.996225 0.736413 0.000000 0
M  V30 144 C -1.996225 -0.088587 0.000000 0
M  V30 145 C -1.281775 -0.501087 0.000000 0
M  V30 146 C -0.567325 -0.088587 0.000000 0
M  V30 147 O -2.710950 -0.501087 0.000000 0
M  V30 148 C 0.517001 1.148913 0.000000 0
M  V30 149 C 0.517001 1.973913 0.000000 0
M  V30 150 C 1.231451 2.386413 0.000000 0
M  V30 151 N -0.197449 2.386413 0.000000 0
M  V30 152 O 1.231451 3.211413 0.000000 0
M  V30 153 C -0.197449 0.736413 0.000000 0
M  V30 154 C -0.911899 1.148913 0.000000 0
M  V30 155 C -1.626349 0.736413 0.000000 0
M  V30 156 C -1.626349 -0.088587 0.000000 0
M  V30 157 C -0.911899 -0.501087 0.000000 0
M  V30 158 C -0.197449 -0.088587 0.000000 0
M  V30 159 O -2.341075 -0.501087 0.000000 0
M  V30 160 C 0.147125 -0.323914 0.000000 0
M  V30 161 C 0.147125 0.501086 0.000000 0
M  V30 162 C 0.861575 0.913586 0.000000 0
M  V30 163 N -0.567325 0.913586 0.000000 0
M  V30 164 O 0.861575 1.738586 0.000000 0
M  V30 165 C -0.567325 -0.736414 0.000000 0
M  V30 166 C -1.281775 -0.323914 0.000000 0
M  V30 167 C -1.996225 -0.736414 0.000000 0
M  V30 168 C -1.996225 -1.561414 0.000000 0
M  V30 169 C -1.281775 -1.973914 0.000000 0
M  V30 170 C -0.567325 -1.561414 0.000000 0
M  V30 171 O -2.710950 -1.973914 0.000000 0
M  V30 172 C 0.517001 -0.323914 0.000000 0
M  V30 173 C 0.517001 0.501086 0.000000 0
M  V30 174 C 1.231451 0.913586 0.000000 0
M  V30 175 N -0.197449 0.913586 0.000000 0
M  V30 176 O 1.231451 1.738586 0.000000 0
M  V30 177 C -0.197449 -0.736414 0.000000 0
M  V30 178 C -0.911899 -0.323914 0.000000 0
M  V30 179 C -1.626349 -0.736414 0.000000 0
M  V30 180 C -1.626349 -1.561414 0.000000 0
M  V30 181 C -0.911899 -1.973914 0.000000 0
M  V30 182 C -0.197449 -1.561414 0.000000 0
M  V30 183 O -2.341075 -1.973914 0.000000 0
M  V30 END ATOM
M  V30 BEGIN BOND
M  V30 1 2 5 7
M  V30 2 1 4 6
M  V30 3 1 4 5
M  V30 4 1 4 3 CFG=3
M  V30 5 1 8 13
M  V30 6 1 8 9
M  V30 7 2 9 10
M  V30 8 1 9 11
M  V30 9 1 3 12
M  V30 10 1 12 13
M  V30 11 1 1 6
M  V30 12 1 5 16
M  V30 13 1 14 15
M  V30 14 1 14 16
M  V30 15 2 15 17
M  V30 16 1 15 21
M  V30 17 2 20 22
M  V30 18 1 19 21
M  V30 19 1 19 20
M  V30 20 1 19 18 CFG=3
M  V30 21 1 23 28
M  V30 22 1 23 24
M  V30 23 2 24 25
M  V30 24 1 24 26
M  V30 25 1 18 27
M  V30 26 1 27 28
M  V30 27 1 20 32
M  V30 28 2 31 33
M  V30 29 1 30 32
M  V30 30 1 30 31
M  V30 31 1 30 29 CFG=3
M  V30 32 1 29 34
M  V30 33 1 34 35
M  V30 34 1 35 36
M  V30 35 1 36 37
M  V30 36 1 31 139
M  V30 37 2 40 42
M  V30 38 1 39 41
M  V30 39 1 39 40
M  V30 40 1 39 38 CFG=3
M  V30 41 1 43 48
M  V30 42 1 43 44
M  V30 43 2 44 45
M  V30 44 1 44 46
M  V30 45 1 38 47
M  V30 46 1 47 48
M  V30 47 2 51 53
M  V30 48 1 50 52
M  V30 49 1 50 51
M  V30 50 1 50 49 CFG=3
M  V30 51 1 54 59
M  V30 52 1 54 55
M  V30 53 2 55 56
M  V30 54 1 55 57
M  V30 55 1 49 58
M  V30 56 1 58 59
M  V30 57 1 40 52
M  V30 58 1 51 63
M  V30 59 2 62 64
M  V30 60 1 61 63
M  V30 61 1 61 62
M  V30 62 1 61 60 CFG=3
M  V30 63 1 60 65
M  V30 64 1 65 66
M  V30 65 1 66 67
M  V30 66 1 67 68
M  V30 67 1 62 130
M  V30 68 2 72 74
M  V30 69 1 71 73
M  V30 70 1 71 72
M  V30 71 1 71 70 CFG=3
M  V30 72 1 75 80
M  V30 73 1 75 76
M  V30 74 2 76 77
M  V30 75 1 76 78
M  V30 76 1 70 79
M  V30 77 1 79 80
M  V30 78 1 69 73
M  V30 79 1 72 83
M  V30 80 1 81 82
M  V30 81 1 81 83
M  V30 82 2 82 84
M  V30 83 1 82 88
M  V30 84 2 87 89
M  V30 85 1 86 88
M  V30 86 1 86 87
M  V30 87 1 86 85 CFG=3
M  V30 88 1 90 95
M  V30 89 1 90 91
M  V30 90 2 91 92
M  V30 91 1 91 93
M  V30 92 1 85 94
M  V30 93 1 94 95
M  V30 94 1 87 99
M  V30 95 2 98 100
M  V30 96 1 97 99
M  V30 97 1 97 98
M  V30 98 1 97 96 CFG=3
M  V30 99 1 96 101
M  V30 100 1 101 102
M  V30 101 1 102 103
M  V30 102 1 103 104
M  V30 103 1 98 163
M  V30 104 2 107 109
M  V30 105 1 106 108
M  V30 106 1 106 107
M  V30 107 1 106 105 CFG=3
M  V30 108 1 110 115
M  V30 109 1 110 111
M  V30 110 2 111 112
M  V30 111 1 111 113
M  V30 112 1 105 114
M  V30 113 1 114 115
M  V30 114 2 118 120
M  V30 115 1 117 119
M  V30 116 1 117 118
M  V30 117 1 117 116 CFG=3
M  V30 118 1 121 126
M  V30 119 1 121 122
M  V30 120 2 122 123
M  V30 121 1 122 124
M  V30 122 1 116 125
M  V30 123 1 125 126
M  V30 124 1 107 119
M  V30 125 1 68 118
M  V30 126 2 129 131
M  V30 127 1 128 130
M  V30 128 1 128 129
M  V30 129 1 128 127 CFG=3
M  V30 130 1 127 132
M  V30 131 1 132 133
M  V30 132 1 133 134
M  V30 133 1 134 135
M  V30 134 1 2 129
M  V30 135 1 137 136 CFG=3
M  V30 136 1 137 138
M  V30 137 1 137 139
M  V30 138 2 138 140
M  V30 139 1 136 141
M  V30 140 2 141 142
M  V30 141 1 142 143
M  V30 142 2 143 144
M  V30 143 1 144 145
M  V30 144 2 145 146
M  V30 145 1 141 146
M  V30 146 1 144 147
M  V30 147 1 138 151
M  V30 148 1 149 148 CFG=3
M  V30 149 1 149 150
M  V30 150 1 149 151
M  V30 151 2 150 152
M  V30 152 1 148 153
M  V30 153 2 153 154
M  V30 154 1 154 155
M  V30 155 2 155 156
M  V30 156 1 156 157
M  V30 157 2 157 158
M  V30 158 1 153 158
M  V30 159 1 156 159
M  V30 160 1 41 150
M  V30 161 1 161 160 CFG=3
M  V30 162 1 161 162
M  V30 163 1 161 163
M  V30 164 2 162 164
M  V30 165 1 160 165
M  V30 166 2 165 166
M  V30 167 1 166 167
M  V30 168 2 167 168
M  V30 169 1 168 169
M  V30 170 2 169 170
M  V30 171 1 165 170
M  V30 172 1 168 171
M  V30 173 1 162 175
M  V30 174 1 173 172 CFG=3
M  V30 175 1 173 174
M  V30 176 1 173 175
M  V30 177 2 174 176
M  V30 178 1 172 177
M  V30 179 2 177 178
M  V30 180 1 178 179
M  V30 181 2 179 180
M  V30 182 1 180 181
M  V30 183 2 181 182
M  V30 184 1 177 182
M  V30 185 1 180 183
M  V30 186 1 108 174
M  V30 END BOND
M  V30 BEGIN SGROUP
M  V30 1 SUP 1 ATOMS=(1 1) XBONDS=(1 11) CLASS=LGRP LABEL=H
M  V30 2 SUP 2 ATOMS=(1 2) XBONDS=(1 134) CLASS=LGRP LABEL=OH
M  V30 3 SUP 3 ATOMS=(11 3 4 5 6 7 8 9 10 11 12 13) XBONDS=(2 11 12) CLASS=AA -
M  V30 LABEL=R CSTATE=(4 11 0.145979 0.000000 0) CSTATE=(4 12 -1.282921 -
M  V30 0.000000 0) SAP=(3 1 6 Al) SAP=(3 5 16 Br)
M  V30 4 SUP 4 ATOMS=(4 14 15 16 17) XBONDS=(2 12 16) CLASS=AA LABEL=G -
M  V30 CSTATE=(4 12 1.059025 0.000000 0) CSTATE=(4 16 -0.369875 0.000000 0) -
M  V30 SAP=(3 16 5 Al) SAP=(3 15 21 Br)
M  V30 5 SUP 5 ATOMS=(11 18 19 20 21 22 23 24 25 26 27 28) XBONDS=(2 16 27) -
M  V30 CLASS=AA LABEL=R CSTATE=(4 16 1.059025 0.000000 0) CSTATE=(4 27 -
M  V30 -0.369875 0.000000 0) SAP=(3 21 15 Al) SAP=(3 20 32 Br)
M  V30 6 SUP 6 ATOMS=(9 29 30 31 32 33 34 35 36 37) XBONDS=(2 27 36) CLASS=AA -
M  V30 LABEL=K CSTATE=(4 27 1.059025 0.000000 0) CSTATE=(4 36 -0.369875 -
M  V30 0.000000 0) SAP=(3 32 20 Al) SAP=(3 31 139 Br)
M  V30 7 SUP 7 ATOMS=(11 38 39 40 41 42 43 44 45 46 47 48) XBONDS=(2 160 57) -
M  V30 CLASS=AA LABEL=R CSTATE=(4 160 1.059025 0.000000 0) CSTATE=(4 57 -
M  V30 -1.059025 0.000000 0) SAP=(3 41 150 Al) SAP=(3 40 52 Br)
M  V30 8 SUP 8 ATOMS=(11 49 50 51 52 53 54 55 56 57 58 59) XBONDS=(2 57 58) -
M  V30 CLASS=AA LABEL=R CSTATE=(4 57 -0.369875 0.000000 0) CSTATE=(4 58 -
M  V30 -1.798775 0.000000 0) SAP=(3 40 52 Al) SAP=(3 51 63 Br)
M  V30 9 SUP 9 ATOMS=(9 60 61 62 63 64 65 66 67 68) XBONDS=(3 58 67 125) -
M  V30 CLASS=AA LABEL=K CSTATE=(4 58 1.059025 -0.000000 0) CSTATE=(4 67 -
M  V30 -0.369875 -0.000000 0) CSTATE=(4 125 2.487925 2.239673 0) SAP=(3 63 51 -
M  V30 Al) SAP=(3 62 130 Br) SAP=(3 68 118 Cx)
M  V30 10 SUP 10 ATOMS=(1 69) XBONDS=(1 78) CLASS=LGRP LABEL=H
M  V30 11 SUP 11 ATOMS=(11 70 71 72 73 74 75 76 77 78 79 80) XBONDS=(2 78 79) -
M  V30 CLASS=AA LABEL=R CSTATE=(4 78 0.145979 0.000000 0) CSTATE=(4 79 -
M  V30 -1.282921 0.000000 0) SAP=(3 69 73 Al) SAP=(3 72 83 Br)
M  V30 12 SUP 12 ATOMS=(4 81 82 83 84) XBONDS=(2 79 83) CLASS=AA LABEL=G -
M  V30 CSTATE=(4 79 1.059025 0.000000 0) CSTATE=(4 83 -0.369875 0.000000 0) -
M  V30 SAP=(3 83 72 Al) SAP=(3 82 88 Br)
M  V30 13 SUP 13 ATOMS=(11 85 86 87 88 89 90 91 92 93 94 95) XBONDS=(2 83 94) -
M  V30 CLASS=AA LABEL=R CSTATE=(4 83 1.059025 0.000000 0) CSTATE=(4 94 -
M  V30 -0.369875 0.000000 0) SAP=(3 88 82 Al) SAP=(3 87 99 Br)
M  V30 14 SUP 14 ATOMS=(9 96 97 98 99 100 101 102 103 104) XBONDS=(2 94 103) -
M  V30 CLASS=AA LABEL=K CSTATE=(4 94 1.059025 0.000000 0) CSTATE=(4 103 -
M  V30 -0.369875 0.000000 0) SAP=(3 99 87 Al) SAP=(3 98 163 Br)
M  V30 15 SUP 15 ATOMS=(11 105 106 107 108 109 110 111 112 113 114 115) -
M  V30 XBONDS=(2 186 124) CLASS=AA LABEL=R CSTATE=(4 186 1.059025 0.000000 0) -
M  V30 CSTATE=(4 124 -0.344575 0.000000 0) SAP=(3 108 174 Al) SAP=(3 107 119 -
M  V30 Br)
M  V30 16 SUP 16 ATOMS=(11 116 117 118 119 120 121 122 123 124 125 126) -
M  V30 XBONDS=(2 124 125) CLASS=AA LABEL=R CSTATE=(4 124 -1.084325 0.000000 -
M  V30 0) CSTATE=(4 125 -0.344575 1.472827 0) SAP=(3 107 119 Al) SAP=(3 68 -
M  V30 118 Cx)
M  V30 17 SUP 17 ATOMS=(9 127 128 129 130 131 132 133 134 135) XBONDS=(2 67 -
M  V30 134) CLASS=AA LABEL=K CSTATE=(4 67 1.059025 0.000000 0) CSTATE=(4 134 -
M  V30 -0.145339 0.000000 0) SAP=(3 130 62 Al) SAP=(3 2 129 Br)
M  V30 18 SUP 18 ATOMS=(12 136 137 138 139 140 141 142 143 144 145 146 147) -
M  V30 XBONDS=(2 36 147) CLASS=AA LABEL=Y CSTATE=(4 36 1.059025 0.000000 0) -
M  V30 CSTATE=(4 147 -0.369875 0.000000 0) SAP=(3 139 31 Al) SAP=(3 138 151 Br)
M  V30 19 SUP 19 ATOMS=(12 148 149 150 151 152 153 154 155 156 157 158 159) -
M  V30 XBONDS=(2 147 160) CLASS=AA LABEL=Y CSTATE=(4 147 1.059024 0.000000 0) -
M  V30 CSTATE=(4 160 -1.059025 0.000000 0) SAP=(3 151 138 Al) SAP=(3 41 150 Br)
M  V30 20 SUP 20 ATOMS=(12 160 161 162 163 164 165 166 167 168 169 170 171) -
M  V30 XBONDS=(2 103 173) CLASS=AA LABEL=Y CSTATE=(4 103 1.059025 0.000000 0) -
M  V30 CSTATE=(4 173 -0.369875 0.000000 0) SAP=(3 163 98 Al) SAP=(3 162 175 Br)
M  V30 21 SUP 21 ATOMS=(12 172 173 174 175 176 177 178 179 180 181 182 183) -
M  V30 XBONDS=(2 173 186) CLASS=AA LABEL=Y CSTATE=(4 173 1.059024 0.000000 0) -
M  V30 CSTATE=(4 186 -1.059025 0.000000 0) SAP=(3 175 162 Al) SAP=(3 108 174 -
M  V30 Br)
M  V30 END SGROUP
M  V30 END CTAB
M  END
$$$$
