(RGRKLLRR)2KK.sdf
  ChemDraw04101916132D

  0  0  0     0  0              0 V3000
M  V30 BEGIN CTAB
M  V30 COUNTS 167 166 21 0 1
M  V30 BEGIN ATOM
M  V30 1 H -2.232908 2.386413 0.000000 0
M  V30 2 O 2.233548 2.386413 0.000000 0
M  V30 3 C -1.664437 1.148913 0.000000 0
M  V30 4 C -1.664437 1.973913 0.000000 0
M  V30 5 C -0.949987 2.386413 0.000000 0
M  V30 6 N -2.378887 2.386413 0.000000 0
M  V30 7 O -0.949987 3.211413 0.000000 0
M  V30 8 N -1.664437 -0.501087 0.000000 0
M  V30 9 C -1.664437 -1.326087 0.000000 0
M  V30 10 N -2.378887 -1.738587 0.000000 0
M  V30 11 N -0.949987 -1.738587 0.000000 0
M  V30 12 C -2.378887 0.736413 0.000000 0
M  V30 13 C -2.378887 -0.088587 0.000000 0
M  V30 14 C -1.294562 1.973913 0.000000 0
M  V30 15 C -0.580112 2.386413 0.000000 0
M  V30 16 N -2.009012 2.386413 0.000000 0
M  V30 17 O -0.580112 3.211413 0.000000 0
M  V30 18 C -0.924687 1.148913 0.000000 0
M  V30 19 C -0.924687 1.973913 0.000000 0
M  V30 20 C -0.210237 2.386413 0.000000 0
M  V30 21 N -1.639137 2.386413 0.000000 0
M  V30 22 O -0.210237 3.211413 0.000000 0
M  V30 23 N -0.924687 -0.501087 0.000000 0
M  V30 24 C -0.924687 -1.326087 0.000000 0
M  V30 25 N -1.639137 -1.738587 0.000000 0
M  V30 26 N -0.210237 -1.738587 0.000000 0
M  V30 27 C -1.639137 0.736413 0.000000 0
M  V30 28 C -1.639137 -0.088587 0.000000 0
M  V30 29 C -0.554812 1.148913 0.000000 0
M  V30 30 C -0.554812 1.973913 0.000000 0
M  V30 31 C 0.159638 2.386413 0.000000 0
M  V30 32 N -1.269262 2.386413 0.000000 0
M  V30 33 O 0.159638 3.211413 0.000000 0
M  V30 34 C -1.269262 0.736413 0.000000 0
M  V30 35 C -1.269262 -0.088587 0.000000 0
M  V30 36 C -1.983712 -0.501087 0.000000 0
M  V30 37 N -1.983712 -1.326087 0.000000 0
M  V30 38 C -0.184937 1.148913 0.000000 0
M  V30 39 C -0.184937 1.973913 0.000000 0
M  V30 40 C 0.529513 2.386413 0.000000 0
M  V30 41 N -0.899387 2.386413 0.000000 0
M  V30 42 O 0.529513 3.211413 0.000000 0
M  V30 43 C -0.899387 0.736413 0.000000 0
M  V30 44 C -0.899387 -0.088587 0.000000 0
M  V30 45 C -1.613837 1.148913 0.000000 0
M  V30 46 C 0.184938 1.148913 0.000000 0
M  V30 47 C 0.184938 1.973913 0.000000 0
M  V30 48 C 0.899388 2.386413 0.000000 0
M  V30 49 N -0.529512 2.386413 0.000000 0
M  V30 50 O 0.899388 3.211413 0.000000 0
M  V30 51 C -0.529512 0.736413 0.000000 0
M  V30 52 C -0.529512 -0.088587 0.000000 0
M  V30 53 C -1.243962 1.148913 0.000000 0
M  V30 54 C 0.554813 1.148913 0.000000 0
M  V30 55 C 0.554813 1.973913 0.000000 0
M  V30 56 C 1.269263 2.386413 0.000000 0
M  V30 57 N -0.159637 2.386413 0.000000 0
M  V30 58 O 1.269263 3.211413 0.000000 0
M  V30 59 N 0.554813 -0.501087 0.000000 0
M  V30 60 C 0.554813 -1.326087 0.000000 0
M  V30 61 N -0.159637 -1.738587 0.000000 0
M  V30 62 N 1.269263 -1.738587 0.000000 0
M  V30 63 C -0.159637 0.736413 0.000000 0
M  V30 64 C -0.159637 -0.088587 0.000000 0
M  V30 65 C 0.924688 1.148913 0.000000 0
M  V30 66 C 0.924688 1.973913 0.000000 0
M  V30 67 C 1.639138 2.386413 0.000000 0
M  V30 68 N 0.210238 2.386413 0.000000 0
M  V30 69 O 1.639138 3.211413 0.000000 0
M  V30 70 N 0.924688 -0.501087 0.000000 0
M  V30 71 C 0.924688 -1.326087 0.000000 0
M  V30 72 N 0.210238 -1.738587 0.000000 0
M  V30 73 N 1.639138 -1.738587 0.000000 0
M  V30 74 C 0.210238 0.736413 0.000000 0
M  V30 75 C 0.210238 -0.088587 0.000000 0
M  V30 76 C 1.294563 1.148914 0.000000 0
M  V30 77 C 1.294563 1.973914 0.000000 0
M  V30 78 C 2.009013 2.386414 0.000000 0
M  V30 79 N 0.580113 2.386414 0.000000 0
M  V30 80 O 2.009013 3.211414 0.000000 0
M  V30 81 C 0.580113 0.736414 0.000000 0
M  V30 82 C 0.580113 -0.088586 0.000000 0
M  V30 83 C -0.134337 -0.501086 0.000000 0
M  V30 84 N -0.134337 -1.326086 0.000000 0
M  V30 85 H -2.232908 0.913586 0.000000 0
M  V30 86 C -1.664437 -0.323914 0.000000 0
M  V30 87 C -1.664437 0.501086 0.000000 0
M  V30 88 C -0.949987 0.913586 0.000000 0
M  V30 89 N -2.378887 0.913586 0.000000 0
M  V30 90 O -0.949987 1.738586 0.000000 0
M  V30 91 N -1.664437 -1.973914 0.000000 0
M  V30 92 C -1.664437 -2.798914 0.000000 0
M  V30 93 N -2.378887 -3.211414 0.000000 0
M  V30 94 N -0.949987 -3.211414 0.000000 0
M  V30 95 C -2.378887 -0.736414 0.000000 0
M  V30 96 C -2.378887 -1.561414 0.000000 0
M  V30 97 C -1.294562 0.501086 0.000000 0
M  V30 98 C -0.580112 0.913586 0.000000 0
M  V30 99 N -2.009012 0.913586 0.000000 0
M  V30 100 O -0.580112 1.738586 0.000000 0
M  V30 101 C -0.924687 -0.323914 0.000000 0
M  V30 102 C -0.924687 0.501086 0.000000 0
M  V30 103 C -0.210237 0.913586 0.000000 0
M  V30 104 N -1.639137 0.913586 0.000000 0
M  V30 105 O -0.210237 1.738586 0.000000 0
M  V30 106 N -0.924687 -1.973914 0.000000 0
M  V30 107 C -0.924687 -2.798914 0.000000 0
M  V30 108 N -1.639137 -3.211414 0.000000 0
M  V30 109 N -0.210237 -3.211414 0.000000 0
M  V30 110 C -1.639137 -0.736414 0.000000 0
M  V30 111 C -1.639137 -1.561414 0.000000 0
M  V30 112 C -0.554812 -0.323914 0.000000 0
M  V30 113 C -0.554812 0.501086 0.000000 0
M  V30 114 C 0.159638 0.913586 0.000000 0
M  V30 115 N -1.269262 0.913586 0.000000 0
M  V30 116 O 0.159638 1.738586 0.000000 0
M  V30 117 C -1.269262 -0.736414 0.000000 0
M  V30 118 C -1.269262 -1.561414 0.000000 0
M  V30 119 C -1.983712 -1.973914 0.000000 0
M  V30 120 N -1.983712 -2.798914 0.000000 0
M  V30 121 C -0.184937 -0.323914 0.000000 0
M  V30 122 C -0.184937 0.501086 0.000000 0
M  V30 123 C 0.529513 0.913586 0.000000 0
M  V30 124 N -0.899387 0.913586 0.000000 0
M  V30 125 O 0.529513 1.738586 0.000000 0
M  V30 126 C -0.899387 -0.736414 0.000000 0
M  V30 127 C -0.899387 -1.561414 0.000000 0
M  V30 128 C -1.613837 -0.323914 0.000000 0
M  V30 129 C 0.554813 -0.323914 0.000000 0
M  V30 130 C 0.554813 0.501086 0.000000 0
M  V30 131 C 1.269263 0.913586 0.000000 0
M  V30 132 N -0.159637 0.913586 0.000000 0
M  V30 133 O 1.269263 1.738586 0.000000 0
M  V30 134 N 0.554813 -1.973914 0.000000 0
M  V30 135 C 0.554813 -2.798914 0.000000 0
M  V30 136 N -0.159637 -3.211414 0.000000 0
M  V30 137 N 1.269263 -3.211414 0.000000 0
M  V30 138 C -0.159637 -0.736414 0.000000 0
M  V30 139 C -0.159637 -1.561414 0.000000 0
M  V30 140 C 1.639138 -0.323914 0.000000 0
M  V30 141 C 1.639138 0.501086 0.000000 0
M  V30 142 C 2.353588 0.913586 0.000000 0
M  V30 143 N 0.924688 0.913586 0.000000 0
M  V30 144 O 2.353588 1.738586 0.000000 0
M  V30 145 N 1.639138 -1.973914 0.000000 0
M  V30 146 C 1.639138 -2.798914 0.000000 0
M  V30 147 N 0.924688 -3.211414 0.000000 0
M  V30 148 N 2.353588 -3.211414 0.000000 0
M  V30 149 C 0.924688 -0.736414 0.000000 0
M  V30 150 C 0.924688 -1.561414 0.000000 0
M  V30 151 C 1.664437 1.148913 0.000000 0
M  V30 152 C 1.664437 1.973913 0.000000 0
M  V30 153 C 2.378887 2.386413 0.000000 0
M  V30 154 N 0.949987 2.386413 0.000000 0
M  V30 155 O 2.378887 3.211413 0.000000 0
M  V30 156 C 0.949987 0.736413 0.000000 0
M  V30 157 C 0.949987 -0.088587 0.000000 0
M  V30 158 C 0.235538 -0.501087 0.000000 0
M  V30 159 N 0.235538 -1.326087 0.000000 0
M  V30 160 C 0.184938 -0.323914 0.000000 0
M  V30 161 C 0.184938 0.501086 0.000000 0
M  V30 162 C 0.899388 0.913586 0.000000 0
M  V30 163 N -0.529512 0.913586 0.000000 0
M  V30 164 O 0.899388 1.738586 0.000000 0
M  V30 165 C -0.529512 -0.736414 0.000000 0
M  V30 166 C -0.529512 -1.561414 0.000000 0
M  V30 167 C -1.243962 -0.323914 0.000000 0
M  V30 END ATOM
M  V30 BEGIN BOND
M  V30 1 2 5 7
M  V30 2 1 4 6
M  V30 3 1 4 5
M  V30 4 1 4 3 CFG=3
M  V30 5 1 8 13
M  V30 6 1 8 9
M  V30 7 2 9 10
M  V30 8 1 9 11
M  V30 9 1 3 12
M  V30 10 1 12 13
M  V30 11 1 1 6
M  V30 12 1 5 16
M  V30 13 1 14 15
M  V30 14 1 14 16
M  V30 15 2 15 17
M  V30 16 1 15 21
M  V30 17 2 20 22
M  V30 18 1 19 21
M  V30 19 1 19 20
M  V30 20 1 19 18 CFG=3
M  V30 21 1 23 28
M  V30 22 1 23 24
M  V30 23 2 24 25
M  V30 24 1 24 26
M  V30 25 1 18 27
M  V30 26 1 27 28
M  V30 27 1 20 32
M  V30 28 2 31 33
M  V30 29 1 30 32
M  V30 30 1 30 31
M  V30 31 1 30 29 CFG=3
M  V30 32 1 29 34
M  V30 33 1 34 35
M  V30 34 1 35 36
M  V30 35 1 36 37
M  V30 36 1 31 41
M  V30 37 2 40 42
M  V30 38 1 39 41
M  V30 39 1 39 40
M  V30 40 1 39 38 CFG=3
M  V30 41 1 38 43
M  V30 42 1 43 44
M  V30 43 1 43 45
M  V30 44 1 40 49
M  V30 45 2 48 50
M  V30 46 1 47 49
M  V30 47 1 47 48
M  V30 48 1 47 46 CFG=3
M  V30 49 1 46 51
M  V30 50 1 51 52
M  V30 51 1 51 53
M  V30 52 1 48 57
M  V30 53 2 56 58
M  V30 54 1 55 57
M  V30 55 1 55 56
M  V30 56 1 55 54 CFG=3
M  V30 57 1 59 64
M  V30 58 1 59 60
M  V30 59 2 60 61
M  V30 60 1 60 62
M  V30 61 1 54 63
M  V30 62 1 63 64
M  V30 63 1 56 68
M  V30 64 2 67 69
M  V30 65 1 66 68
M  V30 66 1 66 67
M  V30 67 1 66 65 CFG=3
M  V30 68 1 70 75
M  V30 69 1 70 71
M  V30 70 2 71 72
M  V30 71 1 71 73
M  V30 72 1 65 74
M  V30 73 1 74 75
M  V30 74 1 67 79
M  V30 75 2 78 80
M  V30 76 1 77 79
M  V30 77 1 77 78
M  V30 78 1 77 76 CFG=3
M  V30 79 1 76 81
M  V30 80 1 81 82
M  V30 81 1 82 83
M  V30 82 1 83 84
M  V30 83 1 78 154
M  V30 84 2 88 90
M  V30 85 1 87 89
M  V30 86 1 87 88
M  V30 87 1 87 86 CFG=3
M  V30 88 1 91 96
M  V30 89 1 91 92
M  V30 90 2 92 93
M  V30 91 1 92 94
M  V30 92 1 86 95
M  V30 93 1 95 96
M  V30 94 1 85 89
M  V30 95 1 88 99
M  V30 96 1 97 98
M  V30 97 1 97 99
M  V30 98 2 98 100
M  V30 99 1 98 104
M  V30 100 2 103 105
M  V30 101 1 102 104
M  V30 102 1 102 103
M  V30 103 1 102 101 CFG=3
M  V30 104 1 106 111
M  V30 105 1 106 107
M  V30 106 2 107 108
M  V30 107 1 107 109
M  V30 108 1 101 110
M  V30 109 1 110 111
M  V30 110 1 103 115
M  V30 111 2 114 116
M  V30 112 1 113 115
M  V30 113 1 113 114
M  V30 114 1 113 112 CFG=3
M  V30 115 1 112 117
M  V30 116 1 117 118
M  V30 117 1 118 119
M  V30 118 1 119 120
M  V30 119 1 114 124
M  V30 120 2 123 125
M  V30 121 1 122 124
M  V30 122 1 122 123
M  V30 123 1 122 121 CFG=3
M  V30 124 1 121 126
M  V30 125 1 126 127
M  V30 126 1 126 128
M  V30 127 1 123 163
M  V30 128 2 131 133
M  V30 129 1 130 132
M  V30 130 1 130 131
M  V30 131 1 130 129 CFG=3
M  V30 132 1 134 139
M  V30 133 1 134 135
M  V30 134 2 135 136
M  V30 135 1 135 137
M  V30 136 1 129 138
M  V30 137 1 138 139
M  V30 138 2 142 144
M  V30 139 1 141 143
M  V30 140 1 141 142
M  V30 141 1 141 140 CFG=3
M  V30 142 1 145 150
M  V30 143 1 145 146
M  V30 144 2 146 147
M  V30 145 1 146 148
M  V30 146 1 140 149
M  V30 147 1 149 150
M  V30 148 1 131 143
M  V30 149 1 84 142
M  V30 150 2 153 155
M  V30 151 1 152 154
M  V30 152 1 152 153
M  V30 153 1 152 151 CFG=3
M  V30 154 1 151 156
M  V30 155 1 156 157
M  V30 156 1 157 158
M  V30 157 1 158 159
M  V30 158 1 2 153
M  V30 159 2 162 164
M  V30 160 1 161 163
M  V30 161 1 161 162
M  V30 162 1 161 160 CFG=3
M  V30 163 1 160 165
M  V30 164 1 165 166
M  V30 165 1 165 167
M  V30 166 1 132 162
M  V30 END BOND
M  V30 BEGIN SGROUP
M  V30 1 SUP 1 ATOMS=(1 1) XBONDS=(1 11) CLASS=LGRP LABEL=H
M  V30 2 SUP 2 ATOMS=(1 2) XBONDS=(1 158) CLASS=LGRP LABEL=OH
M  V30 3 SUP 3 ATOMS=(11 3 4 5 6 7 8 9 10 11 12 13) XBONDS=(2 11 12) CLASS=AA -
M  V30 LABEL=R CSTATE=(4 11 0.145979 0.000000 0) CSTATE=(4 12 -1.282921 -
M  V30 0.000000 0) SAP=(3 1 6 Al) SAP=(3 5 16 Br)
M  V30 4 SUP 4 ATOMS=(4 14 15 16 17) XBONDS=(2 12 16) CLASS=AA LABEL=G -
M  V30 CSTATE=(4 12 1.059025 0.000000 0) CSTATE=(4 16 -0.369875 0.000000 0) -
M  V30 SAP=(3 16 5 Al) SAP=(3 15 21 Br)
M  V30 5 SUP 5 ATOMS=(11 18 19 20 21 22 23 24 25 26 27 28) XBONDS=(2 16 27) -
M  V30 CLASS=AA LABEL=R CSTATE=(4 16 1.059025 0.000000 0) CSTATE=(4 27 -
M  V30 -0.369875 0.000000 0) SAP=(3 21 15 Al) SAP=(3 20 32 Br)
M  V30 6 SUP 6 ATOMS=(9 29 30 31 32 33 34 35 36 37) XBONDS=(2 27 36) CLASS=AA -
M  V30 LABEL=K CSTATE=(4 27 1.059025 0.000000 0) CSTATE=(4 36 -0.369875 -
M  V30 0.000000 0) SAP=(3 32 20 Al) SAP=(3 31 41 Br)
M  V30 7 SUP 7 ATOMS=(8 38 39 40 41 42 43 44 45) XBONDS=(2 36 44) CLASS=AA -
M  V30 LABEL=L CSTATE=(4 36 1.059025 0.000000 0) CSTATE=(4 44 -0.369875 -
M  V30 0.000000 0) SAP=(3 41 31 Al) SAP=(3 40 49 Br)
M  V30 8 SUP 8 ATOMS=(8 46 47 48 49 50 51 52 53) XBONDS=(2 44 52) CLASS=AA -
M  V30 LABEL=L CSTATE=(4 44 1.059025 0.000000 0) CSTATE=(4 52 -0.369875 -
M  V30 0.000000 0) SAP=(3 49 40 Al) SAP=(3 48 57 Br)
M  V30 9 SUP 9 ATOMS=(11 54 55 56 57 58 59 60 61 62 63 64) XBONDS=(2 52 63) -
M  V30 CLASS=AA LABEL=R CSTATE=(4 52 1.059025 0.000000 0) CSTATE=(4 63 -
M  V30 -0.369875 0.000000 0) SAP=(3 57 48 Al) SAP=(3 56 68 Br)
M  V30 10 SUP 10 ATOMS=(11 65 66 67 68 69 70 71 72 73 74 75) XBONDS=(2 63 74) -
M  V30 CLASS=AA LABEL=R CSTATE=(4 63 1.059025 0.000000 0) CSTATE=(4 74 -
M  V30 -0.369875 0.000000 0) SAP=(3 68 56 Al) SAP=(3 67 79 Br)
M  V30 11 SUP 11 ATOMS=(9 76 77 78 79 80 81 82 83 84) XBONDS=(3 74 83 149) -
M  V30 CLASS=AA LABEL=K CSTATE=(4 74 1.059025 -0.000000 0) CSTATE=(4 83 -
M  V30 -0.369875 -0.000000 0) CSTATE=(4 149 2.487925 2.239673 0) SAP=(3 79 67 -
M  V30 Al) SAP=(3 78 154 Br) SAP=(3 84 142 Cx)
M  V30 12 SUP 12 ATOMS=(1 85) XBONDS=(1 94) CLASS=LGRP LABEL=H
M  V30 13 SUP 13 ATOMS=(11 86 87 88 89 90 91 92 93 94 95 96) XBONDS=(2 94 95) -
M  V30 CLASS=AA LABEL=R CSTATE=(4 94 0.145979 0.000000 0) CSTATE=(4 95 -
M  V30 -1.282921 0.000000 0) SAP=(3 85 89 Al) SAP=(3 88 99 Br)
M  V30 14 SUP 14 ATOMS=(4 97 98 99 100) XBONDS=(2 95 99) CLASS=AA LABEL=G -
M  V30 CSTATE=(4 95 1.059025 0.000000 0) CSTATE=(4 99 -0.369875 0.000000 0) -
M  V30 SAP=(3 99 88 Al) SAP=(3 98 104 Br)
M  V30 15 SUP 15 ATOMS=(11 101 102 103 104 105 106 107 108 109 110 111) -
M  V30 XBONDS=(2 99 110) CLASS=AA LABEL=R CSTATE=(4 99 1.059025 0.000000 0) -
M  V30 CSTATE=(4 110 -0.369875 0.000000 0) SAP=(3 104 98 Al) SAP=(3 103 115 Br)
M  V30 16 SUP 16 ATOMS=(9 112 113 114 115 116 117 118 119 120) XBONDS=(2 110 -
M  V30 119) CLASS=AA LABEL=K CSTATE=(4 110 1.059025 0.000000 0) CSTATE=(4 119 -
M  V30 -0.369875 0.000000 0) SAP=(3 115 103 Al) SAP=(3 114 124 Br)
M  V30 17 SUP 17 ATOMS=(8 121 122 123 124 125 126 127 128) XBONDS=(2 119 127) -
M  V30 CLASS=AA LABEL=L CSTATE=(4 119 1.059025 0.000000 0) CSTATE=(4 127 -
M  V30 -0.369875 0.000000 0) SAP=(3 124 114 Al) SAP=(3 123 163 Br)
M  V30 18 SUP 18 ATOMS=(11 129 130 131 132 133 134 135 136 137 138 139) -
M  V30 XBONDS=(2 166 148) CLASS=AA LABEL=R CSTATE=(4 166 1.059025 0.000000 0) -
M  V30 CSTATE=(4 148 -0.344575 0.000000 0) SAP=(3 132 162 Al) SAP=(3 131 143 -
M  V30 Br)
M  V30 19 SUP 19 ATOMS=(11 140 141 142 143 144 145 146 147 148 149 150) -
M  V30 XBONDS=(2 148 149) CLASS=AA LABEL=R CSTATE=(4 148 -1.084325 0.000000 -
M  V30 0) CSTATE=(4 149 -0.344575 1.472827 0) SAP=(3 131 143 Al) SAP=(3 84 -
M  V30 142 Cx)
M  V30 20 SUP 20 ATOMS=(9 151 152 153 154 155 156 157 158 159) XBONDS=(2 83 -
M  V30 158) CLASS=AA LABEL=K CSTATE=(4 83 1.059025 0.000000 0) CSTATE=(4 158 -
M  V30 -0.145339 0.000000 0) SAP=(3 154 78 Al) SAP=(3 2 153 Br)
M  V30 21 SUP 21 ATOMS=(8 160 161 162 163 164 165 166 167) XBONDS=(2 127 166) -
M  V30 CLASS=AA LABEL=L CSTATE=(4 127 1.059025 0.000000 0) CSTATE=(4 166 -
M  V30 -1.059025 0.000000 0) SAP=(3 163 123 Al) SAP=(3 132 162 Br)
M  V30 END SGROUP
M  V30 END CTAB
M  END
$$$$
