Untitled Document-1
  ChemDraw04101914512D

  0  0  0     0  0              0 V3000
M  V30 BEGIN CTAB
M  V30 COUNTS 155 154 21 0 1
M  V30 BEGIN ATOM
M  V30 1 H -1.944159 1.350938 0.000000 0
M  V30 2 O 2.522298 1.350938 0.000000 0
M  V30 3 C -1.375688 0.113437 0.000000 0
M  V30 4 C -1.375688 0.938437 0.000000 0
M  V30 5 C -0.661238 1.350937 0.000000 0
M  V30 6 N -2.090137 1.350937 0.000000 0
M  V30 7 O -0.661238 2.175937 0.000000 0
M  V30 8 N -1.375688 -1.536563 0.000000 0
M  V30 9 C -1.375688 -2.361563 0.000000 0
M  V30 10 N -2.090137 -2.774063 0.000000 0
M  V30 11 N -0.661238 -2.774063 0.000000 0
M  V30 12 C -2.090137 -0.299063 0.000000 0
M  V30 13 C -2.090137 -1.124063 0.000000 0
M  V30 14 C -1.005812 0.938438 0.000000 0
M  V30 15 C -0.291362 1.350938 0.000000 0
M  V30 16 N -1.720262 1.350938 0.000000 0
M  V30 17 O -0.291362 2.175938 0.000000 0
M  V30 18 C -0.635937 0.113437 0.000000 0
M  V30 19 C -0.635937 0.938437 0.000000 0
M  V30 20 C 0.078513 1.350937 0.000000 0
M  V30 21 N -1.350387 1.350937 0.000000 0
M  V30 22 O 0.078513 2.175937 0.000000 0
M  V30 23 N -0.635937 -1.536563 0.000000 0
M  V30 24 C -0.635937 -2.361563 0.000000 0
M  V30 25 N -1.350387 -2.774063 0.000000 0
M  V30 26 N 0.078513 -2.774063 0.000000 0
M  V30 27 C -1.350387 -0.299063 0.000000 0
M  V30 28 C -1.350387 -1.124063 0.000000 0
M  V30 29 C -0.266063 0.113437 0.000000 0
M  V30 30 C -0.266063 0.938437 0.000000 0
M  V30 31 C 0.448387 1.350937 0.000000 0
M  V30 32 N -0.980512 1.350937 0.000000 0
M  V30 33 O 0.448387 2.175937 0.000000 0
M  V30 34 C -0.980512 -0.299063 0.000000 0
M  V30 35 C -0.980512 -1.124063 0.000000 0
M  V30 36 C -1.694962 -1.536563 0.000000 0
M  V30 37 N -1.694962 -2.361563 0.000000 0
M  V30 38 C 0.103812 0.113437 0.000000 0
M  V30 39 C 0.103812 0.938437 0.000000 0
M  V30 40 C 0.818262 1.350937 0.000000 0
M  V30 41 N -0.610638 1.350937 0.000000 0
M  V30 42 O 0.818262 2.175937 0.000000 0
M  V30 43 C 0.843562 0.113437 0.000000 0
M  V30 44 C 0.843562 0.938437 0.000000 0
M  V30 45 C 1.558012 1.350937 0.000000 0
M  V30 46 N 0.129112 1.350937 0.000000 0
M  V30 47 O 1.558012 2.175937 0.000000 0
M  V30 48 N 0.843562 -1.536563 0.000000 0
M  V30 49 C 0.843562 -2.361563 0.000000 0
M  V30 50 N 0.129112 -2.774063 0.000000 0
M  V30 51 N 1.558012 -2.774063 0.000000 0
M  V30 52 C 0.129112 -0.299063 0.000000 0
M  V30 53 C 0.129112 -1.124063 0.000000 0
M  V30 54 C 1.213437 0.113437 0.000000 0
M  V30 55 C 1.213437 0.938437 0.000000 0
M  V30 56 C 1.927887 1.350937 0.000000 0
M  V30 57 N 0.498987 1.350937 0.000000 0
M  V30 58 O 1.927887 2.175937 0.000000 0
M  V30 59 N 1.213437 -1.536563 0.000000 0
M  V30 60 C 1.213437 -2.361563 0.000000 0
M  V30 61 N 0.498987 -2.774063 0.000000 0
M  V30 62 N 1.927887 -2.774063 0.000000 0
M  V30 63 C 0.498987 -0.299063 0.000000 0
M  V30 64 C 0.498987 -1.124063 0.000000 0
M  V30 65 C 1.583312 0.113438 0.000000 0
M  V30 66 C 1.583312 0.938438 0.000000 0
M  V30 67 C 2.297762 1.350938 0.000000 0
M  V30 68 N 0.868862 1.350938 0.000000 0
M  V30 69 O 2.297762 2.175938 0.000000 0
M  V30 70 C 0.868862 -0.299062 0.000000 0
M  V30 71 C 0.868862 -1.124062 0.000000 0
M  V30 72 C 0.154413 -1.536562 0.000000 0
M  V30 73 N 0.154413 -2.361562 0.000000 0
M  V30 74 C 1.953187 0.113438 0.000000 0
M  V30 75 C 1.953187 0.938438 0.000000 0
M  V30 76 C 2.667637 1.350938 0.000000 0
M  V30 77 N 1.238737 1.350938 0.000000 0
M  V30 78 O 2.667637 2.175938 0.000000 0
M  V30 79 C 1.238737 -0.299062 0.000000 0
M  V30 80 C 1.238737 -1.124062 0.000000 0
M  V30 81 C 0.524287 -1.536562 0.000000 0
M  V30 82 N 0.524287 -2.361562 0.000000 0
M  V30 83 C 0.473688 0.113437 0.000000 0
M  V30 84 C 0.473688 0.938437 0.000000 0
M  V30 85 C 1.188138 1.350937 0.000000 0
M  V30 86 N -0.240762 1.350937 0.000000 0
M  V30 87 O 1.188138 2.175937 0.000000 0
M  V30 88 H -2.521659 1.949063 0.000000 0
M  V30 89 C -1.953187 0.711563 0.000000 0
M  V30 90 C -1.953187 1.536563 0.000000 0
M  V30 91 C -1.238737 1.949063 0.000000 0
M  V30 92 N -2.667637 1.949063 0.000000 0
M  V30 93 O -1.238737 2.774063 0.000000 0
M  V30 94 N -1.953187 -0.938437 0.000000 0
M  V30 95 C -1.953187 -1.763437 0.000000 0
M  V30 96 N -2.667637 -2.175937 0.000000 0
M  V30 97 N -1.238737 -2.175937 0.000000 0
M  V30 98 C -2.667637 0.299063 0.000000 0
M  V30 99 C -2.667637 -0.525937 0.000000 0
M  V30 100 C -1.583312 1.536563 0.000000 0
M  V30 101 C -0.868862 1.949063 0.000000 0
M  V30 102 N -2.297763 1.949063 0.000000 0
M  V30 103 O -0.868862 2.774063 0.000000 0
M  V30 104 C -1.213437 0.711563 0.000000 0
M  V30 105 C -1.213437 1.536563 0.000000 0
M  V30 106 C -0.498987 1.949063 0.000000 0
M  V30 107 N -1.927888 1.949063 0.000000 0
M  V30 108 O -0.498987 2.774063 0.000000 0
M  V30 109 N -1.213437 -0.938437 0.000000 0
M  V30 110 C -1.213437 -1.763437 0.000000 0
M  V30 111 N -1.927888 -2.175937 0.000000 0
M  V30 112 N -0.498987 -2.175937 0.000000 0
M  V30 113 C -1.927888 0.299063 0.000000 0
M  V30 114 C -1.927888 -0.525937 0.000000 0
M  V30 115 C -0.843562 0.711563 0.000000 0
M  V30 116 C -0.843562 1.536563 0.000000 0
M  V30 117 C -0.129112 1.949063 0.000000 0
M  V30 118 N -1.558012 1.949063 0.000000 0
M  V30 119 O -0.129112 2.774063 0.000000 0
M  V30 120 C -1.558012 0.299063 0.000000 0
M  V30 121 C -1.558012 -0.525937 0.000000 0
M  V30 122 C -2.272462 -0.938437 0.000000 0
M  V30 123 N -2.272462 -1.763437 0.000000 0
M  V30 124 C -0.473687 0.711562 0.000000 0
M  V30 125 C -0.473687 1.536562 0.000000 0
M  V30 126 C 0.240763 1.949062 0.000000 0
M  V30 127 N -1.188137 1.949062 0.000000 0
M  V30 128 O 0.240763 2.774062 0.000000 0
M  V30 129 C -0.103812 0.711562 0.000000 0
M  V30 130 C -0.103812 1.536562 0.000000 0
M  V30 131 C 0.610638 1.949062 0.000000 0
M  V30 132 N -0.818262 1.949062 0.000000 0
M  V30 133 O 0.610638 2.774062 0.000000 0
M  V30 134 C 0.266063 0.711563 0.000000 0
M  V30 135 C 0.266063 1.536563 0.000000 0
M  V30 136 C 0.980513 1.949063 0.000000 0
M  V30 137 N -0.448387 1.949063 0.000000 0
M  V30 138 O 0.980513 2.774063 0.000000 0
M  V30 139 N 0.266063 -0.938437 0.000000 0
M  V30 140 C 0.266063 -1.763437 0.000000 0
M  V30 141 N -0.448387 -2.175937 0.000000 0
M  V30 142 N 0.980513 -2.175937 0.000000 0
M  V30 143 C -0.448387 0.299063 0.000000 0
M  V30 144 C -0.448387 -0.525937 0.000000 0
M  V30 145 C 1.350388 0.711563 0.000000 0
M  V30 146 C 1.350388 1.536563 0.000000 0
M  V30 147 C 2.064838 1.949063 0.000000 0
M  V30 148 N 0.635938 1.949063 0.000000 0
M  V30 149 O 2.064838 2.774063 0.000000 0
M  V30 150 N 1.350388 -0.938437 0.000000 0
M  V30 151 C 1.350388 -1.763437 0.000000 0
M  V30 152 N 0.635938 -2.175937 0.000000 0
M  V30 153 N 2.064838 -2.175937 0.000000 0
M  V30 154 C 0.635938 0.299063 0.000000 0
M  V30 155 C 0.635938 -0.525937 0.000000 0
M  V30 END ATOM
M  V30 BEGIN BOND
M  V30 1 2 5 7
M  V30 2 1 4 6
M  V30 3 1 4 5
M  V30 4 1 4 3 CFG=3
M  V30 5 1 8 13
M  V30 6 1 8 9
M  V30 7 2 9 10
M  V30 8 1 9 11
M  V30 9 1 3 12
M  V30 10 1 12 13
M  V30 11 1 1 6
M  V30 12 1 5 16
M  V30 13 1 14 15
M  V30 14 1 14 16
M  V30 15 2 15 17
M  V30 16 1 15 21
M  V30 17 2 20 22
M  V30 18 1 19 21
M  V30 19 1 19 20
M  V30 20 1 19 18 CFG=3
M  V30 21 1 23 28
M  V30 22 1 23 24
M  V30 23 2 24 25
M  V30 24 1 24 26
M  V30 25 1 18 27
M  V30 26 1 27 28
M  V30 27 1 20 32
M  V30 28 2 31 33
M  V30 29 1 30 32
M  V30 30 1 30 31
M  V30 31 1 30 29 CFG=3
M  V30 32 1 29 34
M  V30 33 1 34 35
M  V30 34 1 35 36
M  V30 35 1 36 37
M  V30 36 1 31 41
M  V30 37 1 39 38 CFG=3
M  V30 38 1 39 40
M  V30 39 1 39 41
M  V30 40 2 40 42
M  V30 41 1 40 86
M  V30 42 2 45 47
M  V30 43 1 44 46
M  V30 44 1 44 45
M  V30 45 1 44 43 CFG=3
M  V30 46 1 48 53
M  V30 47 1 48 49
M  V30 48 2 49 50
M  V30 49 1 49 51
M  V30 50 1 43 52
M  V30 51 1 52 53
M  V30 52 2 56 58
M  V30 53 1 55 57
M  V30 54 1 55 56
M  V30 55 1 55 54 CFG=3
M  V30 56 1 59 64
M  V30 57 1 59 60
M  V30 58 2 60 61
M  V30 59 1 60 62
M  V30 60 1 54 63
M  V30 61 1 63 64
M  V30 62 1 45 57
M  V30 63 1 56 68
M  V30 64 2 67 69
M  V30 65 1 66 68
M  V30 66 1 66 67
M  V30 67 1 66 65 CFG=3
M  V30 68 1 65 70
M  V30 69 1 70 71
M  V30 70 1 71 72
M  V30 71 1 72 73
M  V30 72 1 67 77
M  V30 73 2 76 78
M  V30 74 1 75 77
M  V30 75 1 75 76
M  V30 76 1 75 74 CFG=3
M  V30 77 1 74 79
M  V30 78 1 79 80
M  V30 79 1 80 81
M  V30 80 1 81 82
M  V30 81 1 2 76
M  V30 82 1 84 83 CFG=3
M  V30 83 1 84 85
M  V30 84 1 84 86
M  V30 85 2 85 87
M  V30 86 1 46 85
M  V30 87 2 91 93
M  V30 88 1 90 92
M  V30 89 1 90 91
M  V30 90 1 90 89 CFG=3
M  V30 91 1 94 99
M  V30 92 1 94 95
M  V30 93 2 95 96
M  V30 94 1 95 97
M  V30 95 1 89 98
M  V30 96 1 98 99
M  V30 97 1 88 92
M  V30 98 1 91 102
M  V30 99 1 100 101
M  V30 100 1 100 102
M  V30 101 2 101 103
M  V30 102 1 101 107
M  V30 103 2 106 108
M  V30 104 1 105 107
M  V30 105 1 105 106
M  V30 106 1 105 104 CFG=3
M  V30 107 1 109 114
M  V30 108 1 109 110
M  V30 109 2 110 111
M  V30 110 1 110 112
M  V30 111 1 104 113
M  V30 112 1 113 114
M  V30 113 1 106 118
M  V30 114 2 117 119
M  V30 115 1 116 118
M  V30 116 1 116 117
M  V30 117 1 116 115 CFG=3
M  V30 118 1 115 120
M  V30 119 1 120 121
M  V30 120 1 121 122
M  V30 121 1 122 123
M  V30 122 1 117 127
M  V30 123 1 125 124 CFG=3
M  V30 124 1 125 126
M  V30 125 1 125 127
M  V30 126 2 126 128
M  V30 127 1 126 132
M  V30 128 1 130 129 CFG=3
M  V30 129 1 130 131
M  V30 130 1 130 132
M  V30 131 2 131 133
M  V30 132 1 131 137
M  V30 133 2 136 138
M  V30 134 1 135 137
M  V30 135 1 135 136
M  V30 136 1 135 134 CFG=3
M  V30 137 1 139 144
M  V30 138 1 139 140
M  V30 139 2 140 141
M  V30 140 1 140 142
M  V30 141 1 134 143
M  V30 142 1 143 144
M  V30 143 1 136 148
M  V30 144 2 147 149
M  V30 145 1 146 148
M  V30 146 1 146 147
M  V30 147 1 146 145 CFG=3
M  V30 148 1 150 155
M  V30 149 1 150 151
M  V30 150 2 151 152
M  V30 151 1 151 153
M  V30 152 1 145 154
M  V30 153 1 154 155
M  V30 154 1 73 147
M  V30 END BOND
M  V30 BEGIN SGROUP
M  V30 1 SUP 1 ATOMS=(1 1) XBONDS=(1 11) CLASS=LGRP LABEL=H
M  V30 2 SUP 2 ATOMS=(1 2) XBONDS=(1 81) CLASS=LGRP LABEL=OH
M  V30 3 SUP 3 ATOMS=(11 3 4 5 6 7 8 9 10 11 12 13) XBONDS=(2 11 12) CLASS=AA -
M  V30 LABEL=R CSTATE=(4 11 0.145979 0.000000 0) CSTATE=(4 12 -1.282921 -
M  V30 0.000000 0) SAP=(3 1 6 Al) SAP=(3 5 16 Br)
M  V30 4 SUP 4 ATOMS=(4 14 15 16 17) XBONDS=(2 12 16) CLASS=AA LABEL=G -
M  V30 CSTATE=(4 12 1.059024 -0.000000 0) CSTATE=(4 16 -0.369875 -0.000000 0) -
M  V30 SAP=(3 16 5 Al) SAP=(3 15 21 Br)
M  V30 5 SUP 5 ATOMS=(11 18 19 20 21 22 23 24 25 26 27 28) XBONDS=(2 16 27) -
M  V30 CLASS=AA LABEL=R CSTATE=(4 16 1.059025 0.000000 0) CSTATE=(4 27 -
M  V30 -0.369875 0.000000 0) SAP=(3 21 15 Al) SAP=(3 20 32 Br)
M  V30 6 SUP 6 ATOMS=(9 29 30 31 32 33 34 35 36 37) XBONDS=(2 27 36) CLASS=AA -
M  V30 LABEL=K CSTATE=(4 27 1.059025 0.000000 0) CSTATE=(4 36 -0.369874 -
M  V30 0.000000 0) SAP=(3 32 20 Al) SAP=(3 31 41 Br)
M  V30 7 SUP 7 ATOMS=(5 38 39 40 41 42) XBONDS=(2 36 41) CLASS=AA LABEL=A -
M  V30 CSTATE=(4 36 1.059025 0.000000 0) CSTATE=(4 41 -0.369875 0.000000 0) -
M  V30 SAP=(3 41 31 Al) SAP=(3 40 86 Br)
M  V30 8 SUP 8 ATOMS=(11 43 44 45 46 47 48 49 50 51 52 53) XBONDS=(2 86 62) -
M  V30 CLASS=AA LABEL=R CSTATE=(4 86 1.059026 0.000000 0) CSTATE=(4 62 -
M  V30 -1.059025 0.000000 0) SAP=(3 46 85 Al) SAP=(3 45 57 Br)
M  V30 9 SUP 9 ATOMS=(11 54 55 56 57 58 59 60 61 62 63 64) XBONDS=(2 62 63) -
M  V30 CLASS=AA LABEL=R CSTATE=(4 62 -0.369875 0.000000 0) CSTATE=(4 63 -
M  V30 -1.798775 0.000000 0) SAP=(3 45 57 Al) SAP=(3 56 68 Br)
M  V30 10 SUP 10 ATOMS=(9 65 66 67 68 69 70 71 72 73) XBONDS=(3 63 72 154) -
M  V30 CLASS=AA LABEL=K CSTATE=(4 63 1.059025 -0.000001 0) CSTATE=(4 72 -
M  V30 -0.369875 -0.000001 0) CSTATE=(4 154 1.910425 4.310625 0) SAP=(3 68 56 -
M  V30 Al) SAP=(3 77 67 Br) SAP=(3 73 147 Cx)
M  V30 11 SUP 11 ATOMS=(9 74 75 76 77 78 79 80 81 82) XBONDS=(2 72 81) -
M  V30 CLASS=AA LABEL=K CSTATE=(4 72 1.059025 0.000000 0) CSTATE=(4 81 -
M  V30 -0.145339 0.000000 0) SAP=(3 77 67 Al) SAP=(3 2 76 Br)
M  V30 12 SUP 12 ATOMS=(5 83 84 85 86 87) XBONDS=(2 41 86) CLASS=AA LABEL=A -
M  V30 CSTATE=(4 41 1.059024 0.000000 0) CSTATE=(4 86 -1.059026 0.000000 0) -
M  V30 SAP=(3 86 40 Al) SAP=(3 46 85 Br)
M  V30 13 SUP 13 ATOMS=(1 88) XBONDS=(1 97) CLASS=LGRP LABEL=H
M  V30 14 SUP 14 ATOMS=(11 89 90 91 92 93 94 95 96 97 98 99) XBONDS=(2 97 98) -
M  V30 CLASS=AA LABEL=R CSTATE=(4 97 0.145978 0.000000 0) CSTATE=(4 98 -
M  V30 -1.282922 0.000000 0) SAP=(3 88 92 Al) SAP=(3 91 102 Br)
M  V30 15 SUP 15 ATOMS=(4 100 101 102 103) XBONDS=(2 98 102) CLASS=AA LABEL=G -
M  V30 CSTATE=(4 98 1.059026 0.000000 0) CSTATE=(4 102 -0.369874 0.000000 0) -
M  V30 SAP=(3 102 91 Al) SAP=(3 101 107 Br)
M  V30 16 SUP 16 ATOMS=(11 104 105 106 107 108 109 110 111 112 113 114) -
M  V30 XBONDS=(2 102 113) CLASS=AA LABEL=R CSTATE=(4 102 1.059025 0.000000 0) -
M  V30 CSTATE=(4 113 -0.369875 0.000000 0) SAP=(3 107 101 Al) SAP=(3 106 118 -
M  V30 Br)
M  V30 17 SUP 17 ATOMS=(9 115 116 117 118 119 120 121 122 123) XBONDS=(2 113 -
M  V30 122) CLASS=AA LABEL=K CSTATE=(4 113 1.059025 0.000000 0) CSTATE=(4 122 -
M  V30 -0.369875 0.000000 0) SAP=(3 118 106 Al) SAP=(3 117 127 Br)
M  V30 18 SUP 18 ATOMS=(5 124 125 126 127 128) XBONDS=(2 122 127) CLASS=AA -
M  V30 LABEL=A CSTATE=(4 122 1.059025 0.000000 0) CSTATE=(4 127 -0.369875 -
M  V30 0.000000 0) SAP=(3 127 117 Al) SAP=(3 126 132 Br)
M  V30 19 SUP 19 ATOMS=(5 129 130 131 132 133) XBONDS=(2 127 132) CLASS=AA -
M  V30 LABEL=A CSTATE=(4 127 1.059025 0.000000 0) CSTATE=(4 132 -0.369875 -
M  V30 0.000000 0) SAP=(3 132 126 Al) SAP=(3 131 137 Br)
M  V30 20 SUP 20 ATOMS=(11 134 135 136 137 138 139 140 141 142 143 144) -
M  V30 XBONDS=(2 132 143) CLASS=AA LABEL=R CSTATE=(4 132 1.059025 -0.000000 -
M  V30 0) CSTATE=(4 143 -0.369875 -0.000000 0) SAP=(3 137 131 Al) SAP=(3 136 -
M  V30 148 Br)
M  V30 21 SUP 21 ATOMS=(11 145 146 147 148 149 150 151 152 153 154 155) -
M  V30 XBONDS=(2 143 154) CLASS=AA LABEL=R CSTATE=(4 143 0.344575 0.000000 0) -
M  V30 CSTATE=(4 154 0.232924 -0.598125 0) SAP=(3 148 136 Al) SAP=(3 73 147 Cx)
M  V30 END SGROUP
M  V30 END CTAB
M  END
$$$$
