CLS1411.cdx
  ChemDraw04101916212D

  0  0  0     0  0              0 V3000
M  V30 BEGIN CTAB
M  V30 COUNTS 138 140 0 0 1
M  V30 BEGIN ATOM
M  V30 1 O -2.892979 5.978457 0.000000 0
M  V30 2 O 0.123750 6.351104 0.000000 0
M  V30 3 C 0.702646 5.306104 0.000000 0
M  V30 4 C -2.177979 6.389561 0.000000 0
M  V30 5 C -1.035332 6.038936 0.000000 0
M  V30 6 O -2.945186 5.539854 0.000000 0
M  V30 7 N 0.158125 5.086104 0.000000 0
M  V30 8 C -1.710479 6.511914 0.000000 0
M  V30 9 O 1.504229 5.490332 0.000000 0
M  V30 10 C -0.440000 5.653936 0.000000 0
M  V30 11 C -1.601875 5.344561 0.000000 0
M  V30 12 O -1.696729 6.923125 0.000000 0
M  V30 13 O 2.992021 5.208457 0.000000 0
M  V30 14 O 5.926250 5.581104 0.000000 0
M  V30 15 C 6.505146 4.536104 0.000000 0
M  V30 16 C 3.624521 5.619561 0.000000 0
M  V30 17 C 4.767168 5.268936 0.000000 0
M  V30 18 O 3.401729 4.769854 0.000000 0
M  V30 19 N 5.575625 4.343604 0.000000 0
M  V30 20 C 4.037021 6.038936 0.000000 0
M  V30 21 C 5.362500 4.883936 0.000000 0
M  V30 22 C 4.200625 4.574561 0.000000 0
M  V30 23 P -3.580479 5.978457 0.000000 0
M  V30 24 O -4.185479 5.978457 0.000000 0 CHG=-1
M  V30 25 O -3.580479 6.583457 0.000000 0
M  V30 26 C -2.374561 4.943125 0.000000 0
M  V30 27 C -2.787061 4.228125 0.000000 0
M  V30 28 C -2.374561 3.513125 0.000000 0
M  V30 29 C -2.787061 2.798125 0.000000 0
M  V30 30 C -2.374561 2.083125 0.000000 0
M  V30 31 C -2.787061 1.368125 0.000000 0
M  V30 32 C -2.374561 0.653125 0.000000 0
M  V30 33 C -2.787061 -0.061875 0.000000 0
M  V30 34 C -2.374561 -0.776875 0.000000 0
M  V30 35 C -2.787061 -1.491875 0.000000 0
M  V30 36 O -1.879561 4.943125 0.000000 0
M  V30 37 C 0.444189 4.475625 0.000000 0
M  V30 38 C 0.031689 3.760625 0.000000 0
M  V30 39 C 0.444189 3.045625 0.000000 0
M  V30 40 C 0.031689 2.330625 0.000000 0
M  V30 41 C 0.444189 1.615625 0.000000 0
M  V30 42 C 0.031689 0.900625 0.000000 0
M  V30 43 C 0.444189 0.185625 0.000000 0
M  V30 44 C 0.031689 -0.529375 0.000000 0
M  V30 45 C 0.444189 -1.244375 0.000000 0
M  V30 46 C 0.031689 -1.959375 0.000000 0
M  V30 47 O 0.939189 4.475625 0.000000 0
M  V30 48 O 0.966689 3.045625 0.000000 0
M  V30 49 C 3.716689 4.145625 0.000000 0
M  V30 50 C 3.304189 3.430625 0.000000 0
M  V30 51 C 3.716689 2.715625 0.000000 0
M  V30 52 C 3.304189 2.000625 0.000000 0
M  V30 53 C 3.716689 1.285625 0.000000 0
M  V30 54 C 3.304189 0.570625 0.000000 0
M  V30 55 C 3.716689 -0.144375 0.000000 0
M  V30 56 C 3.304189 -0.859375 0.000000 0
M  V30 57 C 3.716689 -1.574375 0.000000 0
M  V30 58 C 3.304189 -2.289375 0.000000 0
M  V30 59 O 4.211689 4.145625 0.000000 0
M  V30 60 C 5.861689 3.705625 0.000000 0
M  V30 61 C 5.449189 2.990625 0.000000 0
M  V30 62 C 5.861689 2.275625 0.000000 0
M  V30 63 C 5.449189 1.560625 0.000000 0
M  V30 64 C 5.861689 0.845625 0.000000 0
M  V30 65 C 5.449189 0.130625 0.000000 0
M  V30 66 C 5.861689 -0.584375 0.000000 0
M  V30 67 C 5.449189 -1.299375 0.000000 0
M  V30 68 C 5.861689 -2.014375 0.000000 0
M  V30 69 C 5.449189 -2.729375 0.000000 0
M  V30 70 O 6.356689 3.705625 0.000000 0
M  V30 71 O 6.356689 2.275625 0.000000 0
M  V30 72 O 6.587646 3.958604 0.000000 0
M  V30 73 C -2.374561 -2.206875 0.000000 0
M  V30 74 C -2.787061 -2.921875 0.000000 0
M  V30 75 C 5.861689 -3.444375 0.000000 0
M  V30 76 C 5.449189 -4.159375 0.000000 0
M  V30 77 C 5.861689 -4.874375 0.000000 0
M  V30 78 C 3.716689 -3.004375 0.000000 0
M  V30 79 C 3.304189 -3.719375 0.000000 0
M  V30 80 C 0.444189 -2.674375 0.000000 0
M  V30 81 C 0.031689 -3.389375 0.000000 0
M  V30 82 C 0.444189 -4.104375 0.000000 0
M  V30 83 C 1.406689 2.330625 0.000000 0
M  V30 84 C 0.994189 1.615625 0.000000 0
M  V30 85 C 1.406689 0.900625 0.000000 0
M  V30 86 C 0.994189 0.185625 0.000000 0
M  V30 87 C 1.406689 -0.529375 0.000000 0
M  V30 88 C 0.994189 -1.244375 0.000000 0
M  V30 89 C 1.406689 -1.959375 0.000000 0
M  V30 90 C 0.994189 -2.674375 0.000000 0
M  V30 91 C 1.406689 -3.389375 0.000000 0
M  V30 92 C 0.994189 -4.104375 0.000000 0
M  V30 93 C 1.406689 -4.819375 0.000000 0
M  V30 94 O 4.239189 2.715625 0.000000 0
M  V30 95 O 7.625771 3.970957 0.000000 0 CHG=-1
M  V30 96 P 7.158271 3.970957 0.000000 0
M  V30 97 O 7.158271 4.575957 0.000000 0
M  V30 98 O 7.158271 3.337061 0.000000 0
M  V30 99 N -7.402979 6.638457 0.000000 0
M  V30 100 O -5.101250 6.043125 0.000000 0
M  V30 101 C -4.522354 4.998125 0.000000 0
M  V30 102 C -7.402979 6.087061 0.000000 0
M  V30 103 C -6.260332 5.736436 0.000000 0
M  V30 104 O -7.625771 5.237354 0.000000 0
M  V30 105 O -5.451875 4.811104 0.000000 0
M  V30 106 C -5.660811 5.351436 0.000000 0
M  V30 107 C -6.826875 5.042061 0.000000 0
M  V30 108 O -4.439854 4.426104 0.000000 0
M  V30 109 C -2.573936 -3.719375 0.000000 0
M  V30 110 C -1.508311 2.784375 0.000000 0
M  V30 111 C -1.920811 2.069375 0.000000 0
M  V30 112 C -1.508311 1.354375 0.000000 0
M  V30 113 C -1.920811 0.639375 0.000000 0
M  V30 114 C -1.508311 -0.075625 0.000000 0
M  V30 115 C -1.920811 -0.790625 0.000000 0
M  V30 116 C -1.508311 -1.505625 0.000000 0
M  V30 117 C -1.920811 -2.220625 0.000000 0
M  V30 118 C -1.508311 -2.935625 0.000000 0
M  V30 119 C -1.920811 -3.650625 0.000000 0
M  V30 120 O -1.013311 2.784375 0.000000 0
M  V30 121 C -1.508311 -4.365625 0.000000 0
M  V30 122 O -1.797061 3.513125 0.000000 0
M  V30 123 O 1.929189 2.330625 0.000000 0
M  V30 124 C 2.437939 1.739375 0.000000 0
M  V30 125 C 2.025439 1.024375 0.000000 0
M  V30 126 C 2.437939 0.309375 0.000000 0
M  V30 127 C 2.025439 -0.405625 0.000000 0
M  V30 128 C 2.437939 -1.120625 0.000000 0
M  V30 129 C 2.025439 -1.835625 0.000000 0
M  V30 130 C 2.437939 -2.550625 0.000000 0
M  V30 131 C 2.025439 -3.265625 0.000000 0
M  V30 132 C 2.437939 -3.980625 0.000000 0
M  V30 133 C 2.025439 -4.695625 0.000000 0
M  V30 134 C 2.437939 -5.410625 0.000000 0
M  V30 135 C 2.025439 -6.125625 0.000000 0
M  V30 136 C 2.238564 -6.923125 0.000000 0
M  V30 137 O 2.877939 1.739375 0.000000 0
M  V30 138 C 3.716689 -4.434375 0.000000 0
M  V30 END ATOM
M  V30 BEGIN BOND
M  V30 1 1 2 3
M  V30 2 1 3 10 CFG=1
M  V30 3 1 4 11 CFG=1
M  V30 4 1 4 5
M  V30 5 1 2 5
M  V30 6 1 1 4
M  V30 7 1 6 11
M  V30 8 1 7 10
M  V30 9 1 5 8
M  V30 10 1 3 9
M  V30 11 1 10 11 CFG=1
M  V30 12 1 8 12
M  V30 13 1 14 15
M  V30 14 1 15 21 CFG=1
M  V30 15 1 16 22 CFG=1
M  V30 16 1 16 17
M  V30 17 1 14 17
M  V30 18 1 13 16
M  V30 19 1 18 22
M  V30 20 1 19 21
M  V30 21 1 17 20
M  V30 22 1 21 22 CFG=1
M  V30 23 1 1 23
M  V30 24 1 23 24
M  V30 25 2 23 25
M  V30 26 1 9 20
M  V30 27 1 6 26
M  V30 28 1 26 27
M  V30 29 1 27 28
M  V30 30 1 28 29
M  V30 31 1 29 30
M  V30 32 1 30 31
M  V30 33 1 31 32
M  V30 34 1 32 33
M  V30 35 1 33 34
M  V30 36 1 34 35
M  V30 37 2 26 36
M  V30 38 1 37 38
M  V30 39 1 38 39
M  V30 40 1 39 40
M  V30 41 1 40 41
M  V30 42 1 41 42
M  V30 43 1 42 43
M  V30 44 1 43 44
M  V30 45 1 44 45
M  V30 46 1 45 46
M  V30 47 2 37 47
M  V30 48 1 39 48 CFG=3
M  V30 49 1 7 37
M  V30 50 1 49 50
M  V30 51 1 50 51
M  V30 52 1 51 52
M  V30 53 1 52 53
M  V30 54 1 53 54
M  V30 55 1 54 55
M  V30 56 1 55 56
M  V30 57 1 56 57
M  V30 58 1 57 58
M  V30 59 2 49 59
M  V30 60 1 18 49
M  V30 61 1 60 61
M  V30 62 1 61 62
M  V30 63 1 62 63
M  V30 64 1 63 64
M  V30 65 1 64 65
M  V30 66 1 65 66
M  V30 67 1 66 67
M  V30 68 1 67 68
M  V30 69 1 68 69
M  V30 70 2 60 70
M  V30 71 1 62 71 CFG=3
M  V30 72 1 19 60
M  V30 73 1 15 72
M  V30 74 1 35 73
M  V30 75 1 73 74
M  V30 76 1 69 75
M  V30 77 1 75 76
M  V30 78 1 76 77
M  V30 79 1 58 78
M  V30 80 1 78 79
M  V30 81 1 46 80
M  V30 82 1 80 81
M  V30 83 1 81 82
M  V30 84 1 83 84
M  V30 85 1 84 85
M  V30 86 1 85 86
M  V30 87 1 86 87
M  V30 88 1 87 88
M  V30 89 1 88 89
M  V30 90 1 89 90
M  V30 91 1 90 91
M  V30 92 1 91 92
M  V30 93 1 92 93
M  V30 94 1 48 83
M  V30 95 1 51 94 CFG=3
M  V30 96 1 95 96
M  V30 97 2 96 97
M  V30 98 1 96 98
M  V30 99 1 96 72
M  V30 100 1 100 101
M  V30 101 1 101 106 CFG=1
M  V30 102 1 102 107 CFG=1
M  V30 103 1 102 103
M  V30 104 1 100 103
M  V30 105 1 99 102
M  V30 106 1 104 107
M  V30 107 1 105 106
M  V30 108 1 106 107 CFG=1
M  V30 109 1 101 108
M  V30 110 1 23 108
M  V30 111 1 109 74
M  V30 112 1 110 111
M  V30 113 1 111 112
M  V30 114 1 112 113
M  V30 115 1 113 114
M  V30 116 1 114 115
M  V30 117 1 115 116
M  V30 118 1 116 117
M  V30 119 1 117 118
M  V30 120 1 118 119
M  V30 121 2 110 120
M  V30 122 1 119 121
M  V30 123 1 28 122 CFG=3
M  V30 124 1 110 122
M  V30 125 1 83 123
M  V30 126 1 124 125
M  V30 127 1 125 126
M  V30 128 1 126 127
M  V30 129 1 127 128
M  V30 130 1 128 129
M  V30 131 1 129 130
M  V30 132 1 130 131
M  V30 133 1 131 132
M  V30 134 1 132 133
M  V30 135 1 133 134
M  V30 136 1 134 135
M  V30 137 1 135 136
M  V30 138 1 123 124
M  V30 139 2 124 137
M  V30 140 1 79 138
M  V30 END BOND
M  V30 END CTAB
M  END
$$$$
CLS1411.cdx
  ChemDraw04101916212D

  0  0  0     0  0              0 V3000
M  V30 BEGIN CTAB
M  V30 COUNTS 3 2 1 0 0
M  V30 BEGIN ATOM
M  V30 1 C -0.618750 0.357235 0.000000 0
M  V30 2 P 0.206250 0.357235 0.000000 0
M  V30 3 S 0.618750 -0.357235 0.000000 0
M  V30 END ATOM
M  V30 BEGIN BOND
M  V30 1 2 2 3
M  V30 2 1 1 2
M  V30 END BOND
M  V30 BEGIN SGROUP
M  V30 1 SUP 1 ATOMS=(2 2 3) XBONDS=(1 2) LABEL=PS CSTATE=(4 2 -0.825000 -
M  V30 0.000000 0)
M  V30 END SGROUP
M  V30 END CTAB
M  END
$$$$
CLS1411.cdx
  ChemDraw04101916212D

  0  0  0     0  0              0 V3000
M  V30 BEGIN CTAB
M  V30 COUNTS 11 10 1 0 0
M  V30 BEGIN ATOM
M  V30 1 C 0.000000 0.000000 0.000000 0
M  V30 2 C -0.825000 0.000000 0.000000 0
M  V30 3 C 0.825000 0.000000 0.000000 0
M  V30 4 C -1.650000 0.000000 0.000000 0
M  V30 5 C 1.650000 0.000000 0.000000 0
M  V30 6 C -2.475000 0.000000 0.000000 0
M  V30 7 C 2.475000 0.000000 0.000000 0
M  V30 8 C -3.300000 0.000000 0.000000 0
M  V30 9 C 3.300000 0.000000 0.000000 0
M  V30 10 C -4.125000 0.000000 0.000000 0
M  V30 11 C 4.125000 0.000000 0.000000 0
M  V30 END ATOM
M  V30 BEGIN BOND
M  V30 1 1 9 11
M  V30 2 3 8 10
M  V30 3 3 7 9
M  V30 4 1 6 8
M  V30 5 1 5 7
M  V30 6 3 4 6
M  V30 7 3 3 5
M  V30 8 1 2 4
M  V30 9 3 1 2
M  V30 10 1 1 3
M  V30 END BOND
M  V30 BEGIN SGROUP
M  V30 1 SUP 1 ATOMS=(11 1 2 3 4 5 6 7 8 9 10 11) LABEL=C11
M  V30 END SGROUP
M  V30 END CTAB
M  END
$$$$
CLS1411.cdx
  ChemDraw04101916212D

  0  0  0     0  0              0 V3000
M  V30 BEGIN CTAB
M  V30 COUNTS 14 13 1 0 0
M  V30 BEGIN ATOM
M  V30 1 C -0.412500 0.000000 0.000000 0
M  V30 2 C 0.412500 0.000000 0.000000 0
M  V30 3 C -1.237500 0.000000 0.000000 0
M  V30 4 C 1.237500 0.000000 0.000000 0
M  V30 5 C -2.062500 0.000000 0.000000 0
M  V30 6 C 2.062500 0.000000 0.000000 0
M  V30 7 C -2.887500 0.000000 0.000000 0
M  V30 8 C 2.887500 0.000000 0.000000 0
M  V30 9 C -3.712500 0.000000 0.000000 0
M  V30 10 C 3.712500 0.000000 0.000000 0
M  V30 11 C -4.537500 0.000000 0.000000 0
M  V30 12 C 4.537500 0.000000 0.000000 0
M  V30 13 C -5.362500 0.000000 0.000000 0
M  V30 14 C 5.362500 0.000000 0.000000 0
M  V30 END ATOM
M  V30 BEGIN BOND
M  V30 1 3 12 14
M  V30 2 3 11 13
M  V30 3 1 10 12
M  V30 4 1 9 11
M  V30 5 3 8 10
M  V30 6 3 7 9
M  V30 7 1 6 8
M  V30 8 1 5 7
M  V30 9 3 4 6
M  V30 10 3 3 5
M  V30 11 1 2 4
M  V30 12 3 1 2
M  V30 13 1 1 3
M  V30 END BOND
M  V30 BEGIN SGROUP
M  V30 1 SUP 1 ATOMS=(14 1 2 3 4 5 6 7 8 9 10 11 12 13 14) LABEL=C14
M  V30 END SGROUP
M  V30 END CTAB
M  END
$$$$
CLS1411.cdx
  ChemDraw04101916212D

  0  0  0     0  0              0 V3000
M  V30 BEGIN CTAB
M  V30 COUNTS 11 10 1 0 0
M  V30 BEGIN ATOM
M  V30 1 C 0.000000 0.000000 0.000000 0
M  V30 2 C -0.825000 0.000000 0.000000 0
M  V30 3 C 0.825000 0.000000 0.000000 0
M  V30 4 C -1.650000 0.000000 0.000000 0
M  V30 5 C 1.650000 0.000000 0.000000 0
M  V30 6 C -2.475000 0.000000 0.000000 0
M  V30 7 C 2.475000 0.000000 0.000000 0
M  V30 8 C -3.300000 0.000000 0.000000 0
M  V30 9 C 3.300000 0.000000 0.000000 0
M  V30 10 C -4.125000 0.000000 0.000000 0
M  V30 11 C 4.125000 0.000000 0.000000 0
M  V30 END ATOM
M  V30 BEGIN BOND
M  V30 1 1 9 11
M  V30 2 3 8 10
M  V30 3 3 7 9
M  V30 4 1 6 8
M  V30 5 1 5 7
M  V30 6 3 4 6
M  V30 7 3 3 5
M  V30 8 1 2 4
M  V30 9 3 1 2
M  V30 10 1 1 3
M  V30 END BOND
M  V30 BEGIN SGROUP
M  V30 1 SUP 1 ATOMS=(11 1 2 3 4 5 6 7 8 9 10 11) LABEL=C11
M  V30 END SGROUP
M  V30 END CTAB
M  END
$$$$
CLS1411.cdx
  ChemDraw04101916212D

  0  0  0     0  0              0 V3000
M  V30 BEGIN CTAB
M  V30 COUNTS 13 12 1 0 0
M  V30 BEGIN ATOM
M  V30 1 C 0.000000 0.000000 0.000000 0
M  V30 2 C -0.825000 0.000000 0.000000 0
M  V30 3 C 0.825000 0.000000 0.000000 0
M  V30 4 C -1.650000 0.000000 0.000000 0
M  V30 5 C 1.650000 0.000000 0.000000 0
M  V30 6 C -2.475000 0.000000 0.000000 0
M  V30 7 C 2.475000 0.000000 0.000000 0
M  V30 8 C -3.300000 0.000000 0.000000 0
M  V30 9 C 3.300000 0.000000 0.000000 0
M  V30 10 C -4.125000 0.000000 0.000000 0
M  V30 11 C 4.125000 0.000000 0.000000 0
M  V30 12 C -4.950000 0.000000 0.000000 0
M  V30 13 C 4.950000 0.000000 0.000000 0
M  V30 END ATOM
M  V30 BEGIN BOND
M  V30 1 3 11 13
M  V30 2 1 10 12
M  V30 3 1 9 11
M  V30 4 3 8 10
M  V30 5 3 7 9
M  V30 6 1 6 8
M  V30 7 1 5 7
M  V30 8 3 4 6
M  V30 9 3 3 5
M  V30 10 1 2 4
M  V30 11 3 1 2
M  V30 12 1 1 3
M  V30 END BOND
M  V30 BEGIN SGROUP
M  V30 1 SUP 1 ATOMS=(13 1 2 3 4 5 6 7 8 9 10 11 12 13) LABEL=C13
M  V30 END SGROUP
M  V30 END CTAB
M  END
$$$$
CLS1411.cdx
  ChemDraw04101916212D

  0  0  0     0  0              0 V3000
M  V30 BEGIN CTAB
M  V30 COUNTS 13 12 1 0 0
M  V30 BEGIN ATOM
M  V30 1 C 0.000000 0.000000 0.000000 0
M  V30 2 C -0.825000 0.000000 0.000000 0
M  V30 3 C 0.825000 0.000000 0.000000 0
M  V30 4 C -1.650000 0.000000 0.000000 0
M  V30 5 C 1.650000 0.000000 0.000000 0
M  V30 6 C -2.475000 0.000000 0.000000 0
M  V30 7 C 2.475000 0.000000 0.000000 0
M  V30 8 C -3.300000 0.000000 0.000000 0
M  V30 9 C 3.300000 0.000000 0.000000 0
M  V30 10 C -4.125000 0.000000 0.000000 0
M  V30 11 C 4.125000 0.000000 0.000000 0
M  V30 12 C -4.950000 0.000000 0.000000 0
M  V30 13 C 4.950000 0.000000 0.000000 0
M  V30 END ATOM
M  V30 BEGIN BOND
M  V30 1 3 11 13
M  V30 2 1 10 12
M  V30 3 1 9 11
M  V30 4 3 8 10
M  V30 5 3 7 9
M  V30 6 1 6 8
M  V30 7 1 5 7
M  V30 8 3 4 6
M  V30 9 3 3 5
M  V30 10 1 2 4
M  V30 11 3 1 2
M  V30 12 1 1 3
M  V30 END BOND
M  V30 BEGIN SGROUP
M  V30 1 SUP 1 ATOMS=(13 1 2 3 4 5 6 7 8 9 10 11 12 13) LABEL=C13
M  V30 END SGROUP
M  V30 END CTAB
M  END
$$$$
CLS1411.cdx
  ChemDraw04101916212D

  0  0  0     0  0              0 V3000
M  V30 BEGIN CTAB
M  V30 COUNTS 13 12 1 0 0
M  V30 BEGIN ATOM
M  V30 1 C 0.000000 0.000000 0.000000 0
M  V30 2 C -0.825000 0.000000 0.000000 0
M  V30 3 C 0.825000 0.000000 0.000000 0
M  V30 4 C -1.650000 0.000000 0.000000 0
M  V30 5 C 1.650000 0.000000 0.000000 0
M  V30 6 C -2.475000 0.000000 0.000000 0
M  V30 7 C 2.475000 0.000000 0.000000 0
M  V30 8 C -3.300000 0.000000 0.000000 0
M  V30 9 C 3.300000 0.000000 0.000000 0
M  V30 10 C -4.125000 0.000000 0.000000 0
M  V30 11 C 4.125000 0.000000 0.000000 0
M  V30 12 C -4.950000 0.000000 0.000000 0
M  V30 13 C 4.950000 0.000000 0.000000 0
M  V30 END ATOM
M  V30 BEGIN BOND
M  V30 1 3 11 13
M  V30 2 1 10 12
M  V30 3 1 9 11
M  V30 4 3 8 10
M  V30 5 3 7 9
M  V30 6 1 6 8
M  V30 7 1 5 7
M  V30 8 3 4 6
M  V30 9 3 3 5
M  V30 10 1 2 4
M  V30 11 3 1 2
M  V30 12 1 1 3
M  V30 END BOND
M  V30 BEGIN SGROUP
M  V30 1 SUP 1 ATOMS=(13 1 2 3 4 5 6 7 8 9 10 11 12 13) LABEL=C13
M  V30 END SGROUP
M  V30 END CTAB
M  END
$$$$
CLS1411.cdx
  ChemDraw04101916212D

  0  0  0     0  0              0 V3000
M  V30 BEGIN CTAB
M  V30 COUNTS 13 12 1 0 0
M  V30 BEGIN ATOM
M  V30 1 C 0.000000 0.000000 0.000000 0
M  V30 2 C -0.825000 0.000000 0.000000 0
M  V30 3 C 0.825000 0.000000 0.000000 0
M  V30 4 C -1.650000 0.000000 0.000000 0
M  V30 5 C 1.650000 0.000000 0.000000 0
M  V30 6 C -2.475000 0.000000 0.000000 0
M  V30 7 C 2.475000 0.000000 0.000000 0
M  V30 8 C -3.300000 0.000000 0.000000 0
M  V30 9 C 3.300000 0.000000 0.000000 0
M  V30 10 C -4.125000 0.000000 0.000000 0
M  V30 11 C 4.125000 0.000000 0.000000 0
M  V30 12 C -4.950000 0.000000 0.000000 0
M  V30 13 C 4.950000 0.000000 0.000000 0
M  V30 END ATOM
M  V30 BEGIN BOND
M  V30 1 3 11 13
M  V30 2 1 10 12
M  V30 3 1 9 11
M  V30 4 3 8 10
M  V30 5 3 7 9
M  V30 6 1 6 8
M  V30 7 1 5 7
M  V30 8 3 4 6
M  V30 9 3 3 5
M  V30 10 1 2 4
M  V30 11 3 1 2
M  V30 12 1 1 3
M  V30 END BOND
M  V30 BEGIN SGROUP
M  V30 1 SUP 1 ATOMS=(13 1 2 3 4 5 6 7 8 9 10 11 12 13) LABEL=C13
M  V30 END SGROUP
M  V30 END CTAB
M  END
$$$$
CLS1411.cdx
  ChemDraw04101916212D

  0  0  0     0  0              0 V3000
M  V30 BEGIN CTAB
M  V30 COUNTS 13 12 1 0 0
M  V30 BEGIN ATOM
M  V30 1 C 0.000000 0.000000 0.000000 0
M  V30 2 C -0.825000 0.000000 0.000000 0
M  V30 3 C 0.825000 0.000000 0.000000 0
M  V30 4 C -1.650000 0.000000 0.000000 0
M  V30 5 C 1.650000 0.000000 0.000000 0
M  V30 6 C -2.475000 0.000000 0.000000 0
M  V30 7 C 2.475000 0.000000 0.000000 0
M  V30 8 C -3.300000 0.000000 0.000000 0
M  V30 9 C 3.300000 0.000000 0.000000 0
M  V30 10 C -4.125000 0.000000 0.000000 0
M  V30 11 C 4.125000 0.000000 0.000000 0
M  V30 12 C -4.950000 0.000000 0.000000 0
M  V30 13 C 4.950000 0.000000 0.000000 0
M  V30 END ATOM
M  V30 BEGIN BOND
M  V30 1 3 11 13
M  V30 2 1 10 12
M  V30 3 1 9 11
M  V30 4 3 8 10
M  V30 5 3 7 9
M  V30 6 1 6 8
M  V30 7 1 5 7
M  V30 8 3 4 6
M  V30 9 3 3 5
M  V30 10 1 2 4
M  V30 11 3 1 2
M  V30 12 1 1 3
M  V30 END BOND
M  V30 BEGIN SGROUP
M  V30 1 SUP 1 ATOMS=(13 1 2 3 4 5 6 7 8 9 10 11 12 13) LABEL=C13
M  V30 END SGROUP
M  V30 END CTAB
M  END
$$$$
