@<TRIPOS>COMMENT
 LIGANDBOX_ID = KEGG_DURG-00002185-01
 SOURCE = KEGG_DRUG
 SUPPLIER = KEGG_DRUG
 IDNUMBER = D02365
 MOLECULAR_FORMULA = C5H4N4O2
 MOLECULAR_WEIGHT = 152.113
 MOLECULAR_CHARGE = 0
 NUM_OF_DONOR = 3
 NUM_OF_ACCEPTOR = 5
 HOMO = -9.8694
 LUMO = -0.5349
 NUM_OF_CHIRAL_ATOMS = 0
 LOGS = -1.1941
 LOGP = 0.9514
 NOTE = 

@<TRIPOS>MOLECULE
KEGG_DURG-00002185-01
 15 16 0 0 0
SMALL
USER_CHARGES

@<TRIPOS>ATOM
     1 C1          24.5200   -18.3250     0.0540 C.ar      1  UNK         0.1721
     2 C2          24.5120   -17.0150    -0.0600 C.ar      1  UNK        -0.3740
     3 N1          25.6390   -18.9800     0.1510 N.ar      1  UNK        -0.3499
     4 N2          23.2330   -18.7360     0.0560 N.ar      1  UNK        -0.1891
     5 H1          22.9050   -19.6780     0.1210 H         1  UNK         0.2970
     6 C3          25.6390   -16.2990    -0.0910 C.ar      1  UNK         0.3005
     7 C4          23.2520   -16.5980    -0.1270 C.ar      1  UNK        -0.1301
     8 H2          22.9320   -15.5600    -0.2150 H         1  UNK         0.1761
     9 C5          26.7420   -18.2800     0.1290 C.ar      1  UNK         0.2888
    10 N3          22.4480   -17.6260    -0.0590 N.ar      1  UNK        -0.0256
    11 N4          26.7560   -16.9760     0.0090 N.ar      1  UNK        -0.2814
    12 O1          25.6740   -14.9750    -0.2240 O.3       1  UNK        -0.1918
    13 H3          24.7710   -14.6610    -0.3080 H         1  UNK         0.2416
    14 O2          27.9020   -18.9210     0.2370 O.3       1  UNK        -0.1906
    15 H4          27.7070   -19.8570     0.3270 H         1  UNK         0.2564

@<TRIPOS>BOND
     1     1     2  ar
     2     1     3  ar
     3     1     4  ar
     4     2     6  ar
     5     2     7  ar
     6     3     9  ar
     7     4    10  ar
     8     6    11  ar
     9     6    12   1
    10     9    14   1
    11     7    10  ar
    12     9    11  ar
    13     4     5   1
    14     7     8   1
    15    12    13   1
    16    14    15   1

